REMARK  1 active torsions:
REMARK  status: ('A' for Active; 'I' for Inactive)
REMARK    1  A    between atoms: C_3  and  C_4 
ROOT
HETATM    1 Br   UNK     0      22.120  34.968   0.947  0.00  0.00    -0.096 Br
HETATM    2  C   UNK     0      20.865  35.653   2.266  0.00  0.00     0.096 C 
ENDROOT
BRANCH   2   3
HETATM    3  C   UNK     0      19.577  34.873   2.187  0.00  0.00     0.096 C 
HETATM    4 Br   UNK     0      18.233  35.723   3.309  0.00  0.00    -0.096 Br
ENDBRANCH   2   3
TORSDOF 1
