MODEL 3
REMARK VINA RESULT:    -3.298      1.678      1.678
REMARK INTER + INTRA:          -3.491
REMARK INTER:                  -3.491
REMARK INTRA:                   0.000
REMARK UNBOUND:                 0.000
REMARK  1 active torsions:
REMARK  status: ('A' for Active; 'I' for Inactive)
REMARK    1  A    between atoms: C_3  and  C_4 
ROOT
HETATM    1 Br   UNK     0      17.430  36.940   2.464  0.00  0.00    -0.096 Br
HETATM    2  C   UNK     0      18.827  36.171   3.578  0.00  0.00     0.096 C 
ENDROOT
BRANCH   2   3
HETATM    3  C   UNK     0      19.745  35.331   2.726  0.00  0.00     0.096 C 
HETATM    4 Br   UNK     0      21.021  36.485   1.816  0.00  0.00    -0.096 Br
ENDBRANCH   2   3
TORSDOF 1
ENDMDL
