MODEL 6
REMARK VINA RESULT:    -1.566      2.264      2.377
REMARK INTER + INTRA:          -1.658
REMARK INTER:                  -1.658
REMARK INTRA:                   0.000
REMARK UNBOUND:                 0.000
REMARK  1 active torsions:
REMARK  status: ('A' for Active; 'I' for Inactive)
REMARK    1  A    between atoms: C_3  and  C_4 
ROOT
HETATM    1 Br   UNK     0      19.795  36.594   3.409  0.00  0.00    -0.096 Br
HETATM    2  C   UNK     0      20.976  37.057   1.933  0.00  0.00     0.096 C 
ENDROOT
BRANCH   2   3
HETATM    3  C   UNK     0      21.187  35.846   1.060  0.00  0.00     0.096 C 
HETATM    4 Br   UNK     0      20.727  34.239   2.056  0.00  0.00    -0.096 Br
ENDBRANCH   2   3
TORSDOF 1
ENDMDL
