MODEL 8
REMARK VINA RESULT:    -0.403      2.465      2.855
REMARK INTER + INTRA:          -0.427
REMARK INTER:                  -0.427
REMARK INTRA:                   0.000
REMARK UNBOUND:                 0.000
REMARK  1 active torsions:
REMARK  status: ('A' for Active; 'I' for Inactive)
REMARK    1  A    between atoms: C_3  and  C_4 
ROOT
HETATM    1 Br   UNK     0      21.964  34.822  -0.731  0.00  0.00    -0.096 Br
HETATM    2  C   UNK     0      21.021  34.953   0.967  0.00  0.00     0.096 C 
ENDROOT
BRANCH   2   3
HETATM    3  C   UNK     0      20.933  36.400   1.382  0.00  0.00     0.096 C 
HETATM    4 Br   UNK     0      20.354  36.508   3.237  0.00  0.00    -0.096 Br
ENDBRANCH   2   3
TORSDOF 1
ENDMDL
