REMARK  1 active torsions:
REMARK  status: ('A' for Active; 'I' for Inactive)
REMARK    1  A    between atoms: C_3  and  C_4 
ROOT
HETATM    1 Br   UNK     0      26.070  33.218  -2.707  0.00  0.00    -0.096 Br
HETATM    2  C   UNK     0      27.575  32.075  -3.172  0.00  0.00     0.096 C 
ENDROOT
BRANCH   2   3
HETATM    3  C   UNK     0      27.744  31.012  -2.115  0.00  0.00     0.096 C 
HETATM    4 Br   UNK     0      26.142  30.934  -1.012  0.00  0.00    -0.096 Br
ENDBRANCH   2   3
TORSDOF 1
