REMARK  1 active torsions:
REMARK  status: ('A' for Active; 'I' for Inactive)
REMARK    1  A    between atoms: C_3  and  C_4 
ROOT
HETATM    1 Br   UNK     0      26.181  33.170  -2.743  0.00  0.00    -0.096 Br
HETATM    2  C   UNK     0      25.640  32.725  -4.559  0.00  0.00     0.096 C 
ENDROOT
BRANCH   2   3
HETATM    3  C   UNK     0      26.314  31.445  -4.985  0.00  0.00     0.096 C 
HETATM    4 Br   UNK     0      25.595  30.873  -6.700  0.00  0.00    -0.096 Br
ENDBRANCH   2   3
TORSDOF 1
