REMARK  1 active torsions:
REMARK  status: ('A' for Active; 'I' for Inactive)
REMARK    1  A    between atoms: C_3  and  C_4 
ROOT
HETATM    1 Br   UNK     0      21.204  35.390   1.864  0.00  0.00    -0.096 Br
HETATM    2  C   UNK     0      19.898  36.660   2.549  0.00  0.00     0.096 C 
ENDROOT
BRANCH   2   3
HETATM    3  C   UNK     0      18.933  35.947   3.463  0.00  0.00     0.096 C 
HETATM    4 Br   UNK     0      17.968  37.253   4.534  0.00  0.00    -0.096 Br
ENDBRANCH   2   3
TORSDOF 1
