REMARK  1 active torsions:
REMARK  status: ('A' for Active; 'I' for Inactive)
REMARK    1  A    between atoms: C_3  and  C_4 
ROOT
HETATM    1 Br   UNK     0      20.898  36.248   2.524  0.00  0.00    -0.096 Br
HETATM    2  C   UNK     0      21.088  35.130   0.942  0.00  0.00     0.096 C 
ENDROOT
BRANCH   2   3
HETATM    3  C   UNK     0      21.659  35.951  -0.186  0.00  0.00     0.096 C 
HETATM    4 Br   UNK     0      22.686  34.797  -1.371  0.00  0.00    -0.096 Br
ENDBRANCH   2   3
TORSDOF 1
