MODEL 7
REMARK VINA RESULT:    -2.063      1.829      1.904
REMARK INTER + INTRA:          -2.183
REMARK INTER:                  -2.183
REMARK INTRA:                   0.000
REMARK UNBOUND:                 0.000
REMARK  1 active torsions:
REMARK  status: ('A' for Active; 'I' for Inactive)
REMARK    1  A    between atoms: C_3  and  C_4 
ROOT
HETATM    1 Br   UNK     0      20.861  36.830   1.325  0.00  0.00    -0.096 Br
HETATM    2  C   UNK     0      20.647  35.829   2.980  0.00  0.00     0.096 C 
ENDROOT
BRANCH   2   3
HETATM    3  C   UNK     0      19.179  35.697   3.300  0.00  0.00     0.096 C 
HETATM    4 Br   UNK     0      18.163  36.959   2.223  0.00  0.00    -0.096 Br
ENDBRANCH   2   3
TORSDOF 1
ENDMDL
