MODEL 2
REMARK VINA RESULT:    -3.297      1.888      2.765
REMARK INTER + INTRA:          -3.490
REMARK INTER:                  -3.490
REMARK INTRA:                   0.000
REMARK UNBOUND:                 0.000
REMARK  1 active torsions:
REMARK  status: ('A' for Active; 'I' for Inactive)
REMARK    1  A    between atoms: C_3  and  C_4 
ROOT
HETATM    1 Br   UNK     0      17.381  36.915   2.638  0.00  0.00    -0.096 Br
HETATM    2  C   UNK     0      18.913  36.182   3.587  0.00  0.00     0.096 C 
ENDROOT
BRANCH   2   3
HETATM    3  C   UNK     0      19.762  35.384   2.630  0.00  0.00     0.096 C 
HETATM    4 Br   UNK     0      21.055  36.560   1.775  0.00  0.00    -0.096 Br
ENDBRANCH   2   3
TORSDOF 1
ENDMDL
