MODEL 7
REMARK VINA RESULT:    -1.920      1.993      2.024
REMARK INTER + INTRA:          -2.033
REMARK INTER:                  -2.033
REMARK INTRA:                   0.000
REMARK UNBOUND:                 0.000
REMARK  1 active torsions:
REMARK  status: ('A' for Active; 'I' for Inactive)
REMARK    1  A    between atoms: C_3  and  C_4 
ROOT
HETATM    1 Br   UNK     0      19.025  36.051   3.685  0.00  0.00    -0.096 Br
HETATM    2  C   UNK     0      19.796  37.035   2.194  0.00  0.00     0.096 C 
ENDROOT
BRANCH   2   3
HETATM    3  C   UNK     0      21.014  36.304   1.686  0.00  0.00     0.096 C 
HETATM    4 Br   UNK     0      20.829  34.402   2.052  0.00  0.00    -0.096 Br
ENDBRANCH   2   3
TORSDOF 1
ENDMDL
