MODEL 7
REMARK VINA RESULT:    -1.484      2.170      2.480
REMARK INTER + INTRA:          -1.571
REMARK INTER:                  -1.571
REMARK INTRA:                   0.000
REMARK UNBOUND:                 0.000
REMARK  1 active torsions:
REMARK  status: ('A' for Active; 'I' for Inactive)
REMARK    1  A    between atoms: C_3  and  C_4 
ROOT
HETATM    1 Br   UNK     0      20.642  34.304   2.227  0.00  0.00    -0.096 Br
HETATM    2  C   UNK     0      19.471  35.525   3.188  0.00  0.00     0.096 C 
ENDROOT
BRANCH   2   3
HETATM    3  C   UNK     0      19.690  36.930   2.687  0.00  0.00     0.096 C 
HETATM    4 Br   UNK     0      21.153  36.941   1.404  0.00  0.00    -0.096 Br
ENDBRANCH   2   3
TORSDOF 1
ENDMDL
