MODEL 7
REMARK VINA RESULT:    -1.532      2.240      2.430
REMARK INTER + INTRA:          -1.621
REMARK INTER:                  -1.621
REMARK INTRA:                   0.000
REMARK UNBOUND:                 0.000
REMARK  1 active torsions:
REMARK  status: ('A' for Active; 'I' for Inactive)
REMARK    1  A    between atoms: C_3  and  C_4 
ROOT
HETATM    1 Br   UNK     0      21.364  36.927   1.540  0.00  0.00    -0.096 Br
HETATM    2  C   UNK     0      19.986  36.891   2.914  0.00  0.00     0.096 C 
ENDROOT
BRANCH   2   3
HETATM    3  C   UNK     0      19.545  35.468   3.147  0.00  0.00     0.096 C 
HETATM    4 Br   UNK     0      20.636  34.267   2.072  0.00  0.00    -0.096 Br
ENDBRANCH   2   3
TORSDOF 1
ENDMDL
