MODEL 6
REMARK VINA RESULT:    -1.656      2.024      3.610
REMARK INTER + INTRA:          -1.753
REMARK INTER:                  -1.753
REMARK INTRA:                   0.000
REMARK UNBOUND:                 0.000
REMARK  1 active torsions:
REMARK  status: ('A' for Active; 'I' for Inactive)
REMARK    1  A    between atoms: C_3  and  C_4 
ROOT
HETATM    1 Br   UNK     0      19.066  35.986   3.698  0.00  0.00    -0.096 Br
HETATM    2  C   UNK     0      20.497  35.270   2.591  0.00  0.00     0.096 C 
ENDROOT
BRANCH   2   3
HETATM    3  C   UNK     0      21.132  36.388   1.804  0.00  0.00     0.096 C 
HETATM    4 Br   UNK     0      21.743  35.707   0.087  0.00  0.00    -0.096 Br
ENDBRANCH   2   3
TORSDOF 1
ENDMDL
