REMARK  1 active torsions:
REMARK  status: ('A' for Active; 'I' for Inactive)
REMARK    1  A    between atoms: C_3  and  C_4 
ROOT
HETATM    1 Br   UNK     0      20.899  36.249   2.524  0.00  0.00    -0.096 Br
HETATM    2  C   UNK     0      21.089  35.126   0.946  0.00  0.00     0.096 C 
ENDROOT
BRANCH   2   3
HETATM    3  C   UNK     0      21.664  35.942  -0.184  0.00  0.00     0.096 C 
HETATM    4 Br   UNK     0      22.684  34.780  -1.368  0.00  0.00    -0.096 Br
ENDBRANCH   2   3
TORSDOF 1
