REMARK  1 active torsions:
REMARK  status: ('A' for Active; 'I' for Inactive)
REMARK    1  A    between atoms: C_3  and  C_4 
ROOT
HETATM    1 Br   UNK     0      21.557  35.813   2.453  0.00  0.00    -0.096 Br
HETATM    2  C   UNK     0      19.908  36.846   2.486  0.00  0.00     0.096 C 
ENDROOT
BRANCH   2   3
HETATM    3  C   UNK     0      18.729  35.907   2.526  0.00  0.00     0.096 C 
HETATM    4 Br   UNK     0      17.079  36.940   2.563  0.00  0.00    -0.096 Br
ENDBRANCH   2   3
TORSDOF 1
