REMARK  1 active torsions:
REMARK  status: ('A' for Active; 'I' for Inactive)
REMARK    1  A    between atoms: C_3  and  C_4 
ROOT
HETATM    1 Br   UNK     0      21.299  35.501   1.669  0.00  0.00    -0.096 Br
HETATM    2  C   UNK     0      20.010  36.701   2.498  0.00  0.00     0.096 C 
ENDROOT
BRANCH   2   3
HETATM    3  C   UNK     0      18.947  35.891   3.195  0.00  0.00     0.096 C 
HETATM    4 Br   UNK     0      17.818  37.074   4.251  0.00  0.00    -0.096 Br
ENDBRANCH   2   3
TORSDOF 1
