REMARK  1 active torsions:
REMARK  status: ('A' for Active; 'I' for Inactive)
REMARK    1  A    between atoms: C_3  and  C_4 
ROOT
HETATM    1 Br   UNK     0      18.658  36.357   4.724  0.00  0.00    -0.096 Br
HETATM    2  C   UNK     0      19.088  36.372   2.827  0.00  0.00     0.096 C 
ENDROOT
BRANCH   2   3
HETATM    3  C   UNK     0      20.565  36.616   2.648  0.00  0.00     0.096 C 
HETATM    4 Br   UNK     0      21.218  35.564   1.146  0.00  0.00    -0.096 Br
ENDBRANCH   2   3
TORSDOF 1
