REMARK  1 active torsions:
REMARK  status: ('A' for Active; 'I' for Inactive)
REMARK    1  A    between atoms: C_3  and  C_4 
ROOT
HETATM    1 Br   UNK     0      21.112  35.525   1.657  0.00  0.00    -0.096 Br
HETATM    2  C   UNK     0      20.215  36.766   2.857  0.00  0.00     0.096 C 
ENDROOT
BRANCH   2   3
HETATM    3  C   UNK     0      19.063  36.067   3.533  0.00  0.00     0.096 C 
HETATM    4 Br   UNK     0      18.645  36.971   5.205  0.00  0.00    -0.096 Br
ENDBRANCH   2   3
TORSDOF 1
