REMARK  1 active torsions:
REMARK  status: ('A' for Active; 'I' for Inactive)
REMARK    1  A    between atoms: C_3  and  C_4 
ROOT
HETATM    1 Br   UNK     0      21.729  35.953   2.849  0.00  0.00    -0.096 Br
HETATM    2  C   UNK     0      19.912  36.649   2.821  0.00  0.00     0.096 C 
ENDROOT
BRANCH   2   3
HETATM    3  C   UNK     0      18.934  35.501   2.821  0.00  0.00     0.096 C 
HETATM    4 Br   UNK     0      17.117  36.197   2.849  0.00  0.00    -0.096 Br
ENDBRANCH   2   3
TORSDOF 1
