MODEL 1
REMARK VINA RESULT:    -0.752      0.000      0.000
REMARK INTER + INTRA:          -0.796
REMARK INTER:                  -0.796
REMARK INTRA:                   0.000
REMARK UNBOUND:                 0.000
REMARK  1 active torsions:
REMARK  status: ('A' for Active; 'I' for Inactive)
REMARK    1  A    between atoms: C_3  and  C_4 
ROOT
HETATM    1 Br   UNK     0      22.770  32.056  -3.552  0.00  0.00    -0.096 Br
HETATM    2  C   UNK     0      24.713  32.155  -3.569  0.00  0.00     0.096 C 
ENDROOT
BRANCH   2   3
HETATM    3  C   UNK     0      25.161  33.384  -2.819  0.00  0.00     0.096 C 
HETATM    4 Br   UNK     0      23.647  34.149  -1.865  0.00  0.00    -0.096 Br
ENDBRANCH   2   3
TORSDOF 1
ENDMDL
