MODEL 1
REMARK VINA RESULT:    -2.131      0.000      0.000
REMARK INTER + INTRA:          -2.256
REMARK INTER:                  -2.256
REMARK INTRA:                   0.000
REMARK UNBOUND:                 0.000
REMARK  1 active torsions:
REMARK  status: ('A' for Active; 'I' for Inactive)
REMARK    1  A    between atoms: C_3  and  C_4 
ROOT
HETATM    1 Br   UNK     0      21.311  36.643   1.332  0.00  0.00    -0.096 Br
HETATM    2  C   UNK     0      20.597  34.940   1.945  0.00  0.00     0.096 C 
ENDROOT
BRANCH   2   3
HETATM    3  C   UNK     0      19.779  35.157   3.194  0.00  0.00     0.096 C 
HETATM    4 Br   UNK     0      18.651  36.726   2.965  0.00  0.00    -0.096 Br
ENDBRANCH   2   3
TORSDOF 1
ENDMDL
