MODEL 1
REMARK VINA RESULT:    -2.554      0.000      0.000
REMARK INTER + INTRA:          -2.703
REMARK INTER:                  -2.703
REMARK INTRA:                   0.000
REMARK UNBOUND:                 0.000
REMARK  1 active torsions:
REMARK  status: ('A' for Active; 'I' for Inactive)
REMARK    1  A    between atoms: C_3  and  C_4 
ROOT
HETATM    1 Br   UNK     0      20.714  34.728   1.797  0.00  0.00    -0.096 Br
HETATM    2  C   UNK     0      20.961  36.604   2.252  0.00  0.00     0.096 C 
ENDROOT
BRANCH   2   3
HETATM    3  C   UNK     0      20.396  36.867   3.625  0.00  0.00     0.096 C 
HETATM    4 Br   UNK     0      18.496  36.447   3.636  0.00  0.00    -0.096 Br
ENDBRANCH   2   3
TORSDOF 1
ENDMDL
