MODEL 1
REMARK VINA RESULT:    -1.893      0.000      0.000
REMARK INTER + INTRA:          -2.003
REMARK INTER:                  -2.003
REMARK INTRA:                   0.000
REMARK UNBOUND:                 0.000
REMARK  1 active torsions:
REMARK  status: ('A' for Active; 'I' for Inactive)
REMARK    1  A    between atoms: C_3  and  C_4 
ROOT
HETATM    1 Br   UNK     0      21.417  36.854   1.363  0.00  0.00    -0.096 Br
HETATM    2  C   UNK     0      20.867  35.018   1.701  0.00  0.00     0.096 C 
ENDROOT
BRANCH   2   3
HETATM    3  C   UNK     0      19.779  35.004   2.745  0.00  0.00     0.096 C 
HETATM    4 Br   UNK     0      18.899  36.739   2.789  0.00  0.00    -0.096 Br
ENDBRANCH   2   3
TORSDOF 1
ENDMDL
