MODEL 1
REMARK VINA RESULT:    -2.323      0.000      0.000
REMARK INTER + INTRA:          -2.459
REMARK INTER:                  -2.459
REMARK INTRA:                   0.000
REMARK UNBOUND:                 0.000
REMARK  1 active torsions:
REMARK  status: ('A' for Active; 'I' for Inactive)
REMARK    1  A    between atoms: C_3  and  C_4 
ROOT
HETATM    1 Br   UNK     0      18.620  36.231   3.418  0.00  0.00    -0.096 Br
HETATM    2  C   UNK     0      20.428  36.952   3.388  0.00  0.00     0.096 C 
ENDROOT
BRANCH   2   3
HETATM    3  C   UNK     0      21.087  36.601   2.078  0.00  0.00     0.096 C 
HETATM    4 Br   UNK     0      20.776  34.722   1.679  0.00  0.00    -0.096 Br
ENDBRANCH   2   3
TORSDOF 1
ENDMDL
