MODEL 1
REMARK VINA RESULT:    -1.893      0.000      0.000
REMARK INTER + INTRA:          -2.004
REMARK INTER:                  -2.004
REMARK INTRA:                   0.000
REMARK UNBOUND:                 0.000
REMARK  1 active torsions:
REMARK  status: ('A' for Active; 'I' for Inactive)
REMARK    1  A    between atoms: C_3  and  C_4 
ROOT
HETATM    1 Br   UNK     0      23.305  31.729  -4.412  0.00  0.00    -0.096 Br
HETATM    2  C   UNK     0      23.718  32.766  -2.817  0.00  0.00     0.096 C 
ENDROOT
BRANCH   2   3
HETATM    3  C   UNK     0      25.214  32.887  -2.670  0.00  0.00     0.096 C 
HETATM    4 Br   UNK     0      25.828  31.680  -1.272  0.00  0.00    -0.096 Br
ENDBRANCH   2   3
TORSDOF 1
ENDMDL
