MODEL 1
REMARK VINA RESULT:    -3.304      0.000      0.000
REMARK INTER + INTRA:          -3.497
REMARK INTER:                  -3.497
REMARK INTRA:                   0.000
REMARK UNBOUND:                 0.000
REMARK  1 active torsions:
REMARK  status: ('A' for Active; 'I' for Inactive)
REMARK    1  A    between atoms: C_3  and  C_4 
ROOT
HETATM    1 Br   UNK     0      20.926  36.347   1.985  0.00  0.00    -0.096 Br
HETATM    2  C   UNK     0      19.465  35.547   2.990  0.00  0.00     0.096 C 
ENDROOT
BRANCH   2   3
HETATM    3  C   UNK     0      18.677  36.631   3.682  0.00  0.00     0.096 C 
HETATM    4 Br   UNK     0      19.507  37.045   5.393  0.00  0.00    -0.096 Br
ENDBRANCH   2   3
TORSDOF 1
ENDMDL
