MODEL 1
REMARK VINA RESULT:    -3.122      0.000      0.000
REMARK INTER + INTRA:          -3.305
REMARK INTER:                  -3.305
REMARK INTRA:                   0.000
REMARK UNBOUND:                 0.000
REMARK  1 active torsions:
REMARK  status: ('A' for Active; 'I' for Inactive)
REMARK    1  A    between atoms: C_3  and  C_4 
ROOT
HETATM    1 Br   UNK     0      18.132  37.091   4.444  0.00  0.00    -0.096 Br
HETATM    2  C   UNK     0      18.424  36.389   2.652  0.00  0.00     0.096 C 
ENDROOT
BRANCH   2   3
HETATM    3  C   UNK     0      19.655  35.519   2.648  0.00  0.00     0.096 C 
HETATM    4 Br   UNK     0      21.115  36.464   1.776  0.00  0.00    -0.096 Br
ENDBRANCH   2   3
TORSDOF 1
ENDMDL
