MODEL 1
REMARK VINA RESULT:   119.683      0.000      0.000
REMARK INTER + INTRA:         126.680
REMARK INTER:                 126.680
REMARK INTRA:                   0.000
REMARK UNBOUND:                 0.000
REMARK  1 active torsions:
REMARK  status: ('A' for Active; 'I' for Inactive)
REMARK    1  A    between atoms: C_3  and  C_4 
ROOT
HETATM    1 Br   UNK     0      20.866  34.358   1.888  0.00  0.00    -0.096 Br
HETATM    2  C   UNK     0      19.368  35.567   2.175  0.00  0.00     0.096 C 
ENDROOT
BRANCH   2   3
HETATM    3  C   UNK     0      19.823  36.990   1.971  0.00  0.00     0.096 C 
HETATM    4 Br   UNK     0      21.611  36.994   1.203  0.00  0.00    -0.096 Br
ENDBRANCH   2   3
TORSDOF 1
ENDMDL
