MODEL 1
REMARK VINA RESULT:    -1.595      0.000      0.000
REMARK INTER + INTRA:          -1.689
REMARK INTER:                  -1.689
REMARK INTRA:                   0.000
REMARK UNBOUND:                 0.000
REMARK  1 active torsions:
REMARK  status: ('A' for Active; 'I' for Inactive)
REMARK    1  A    between atoms: C_3  and  C_4 
ROOT
HETATM    1 Br   UNK     0      25.460  31.505  -4.030  0.00  0.00    -0.096 Br
HETATM    2  C   UNK     0      25.149  32.629  -2.472  0.00  0.00     0.096 C 
ENDROOT
BRANCH   2   3
HETATM    3  C   UNK     0      23.705  33.062  -2.445  0.00  0.00     0.096 C 
HETATM    4 Br   UNK     0      22.756  32.248  -3.936  0.00  0.00    -0.096 Br
ENDBRANCH   2   3
TORSDOF 1
ENDMDL
