MODEL 1
REMARK VINA RESULT:     0.112      0.000      0.000
REMARK INTER + INTRA:           0.118
REMARK INTER:                   0.118
REMARK INTRA:                   0.000
REMARK UNBOUND:                 0.000
REMARK  1 active torsions:
REMARK  status: ('A' for Active; 'I' for Inactive)
REMARK    1  A    between atoms: C_3  and  C_4 
ROOT
HETATM    1 Br   UNK     0      23.046  34.348  -1.696  0.00  0.00    -0.096 Br
HETATM    2  C   UNK     0      22.036  35.694  -0.720  0.00  0.00     0.096 C 
ENDROOT
BRANCH   2   3
HETATM    3  C   UNK     0      21.536  35.105   0.576  0.00  0.00     0.096 C 
HETATM    4 Br   UNK     0      20.879  36.532   1.725  0.00  0.00    -0.096 Br
ENDBRANCH   2   3
TORSDOF 1
ENDMDL
