MODEL 1
REMARK VINA RESULT:    -1.918      0.000      0.000
REMARK INTER + INTRA:          -2.030
REMARK INTER:                  -2.030
REMARK INTRA:                   0.000
REMARK UNBOUND:                 0.000
REMARK  1 active torsions:
REMARK  status: ('A' for Active; 'I' for Inactive)
REMARK    1  A    between atoms: C_3  and  C_4 
ROOT
HETATM    1 Br   UNK     0      23.264  31.981  -4.139  0.00  0.00    -0.096 Br
HETATM    2  C   UNK     0      24.067  32.889  -2.617  0.00  0.00     0.096 C 
ENDROOT
BRANCH   2   3
HETATM    3  C   UNK     0      25.558  32.656  -2.622  0.00  0.00     0.096 C 
HETATM    4 Br   UNK     0      26.031  31.453  -1.168  0.00  0.00    -0.096 Br
ENDBRANCH   2   3
TORSDOF 1
ENDMDL
