MODEL 1
REMARK VINA RESULT:    -0.425      0.000      0.000
REMARK INTER + INTRA:          -0.450
REMARK INTER:                  -0.450
REMARK INTRA:                   0.000
REMARK UNBOUND:                 0.000
REMARK  1 active torsions:
REMARK  status: ('A' for Active; 'I' for Inactive)
REMARK    1  A    between atoms: C_3  and  C_4 
ROOT
HETATM    1 Br   UNK     0      20.619  34.299   2.056  0.00  0.00    -0.096 Br
HETATM    2  C   UNK     0      21.584  35.420   0.791  0.00  0.00     0.096 C 
ENDROOT
BRANCH   2   3
HETATM    3  C   UNK     0      21.118  36.848   0.928  0.00  0.00     0.096 C 
HETATM    4 Br   UNK     0      19.538  36.908   2.063  0.00  0.00    -0.096 Br
ENDBRANCH   2   3
TORSDOF 1
ENDMDL
