MODEL 1
REMARK VINA RESULT:    -0.106      0.000      0.000
REMARK INTER + INTRA:          -0.112
REMARK INTER:                  -0.112
REMARK INTRA:                   0.000
REMARK UNBOUND:                 0.000
REMARK  1 active torsions:
REMARK  status: ('A' for Active; 'I' for Inactive)
REMARK    1  A    between atoms: C_3  and  C_4 
ROOT
HETATM    1 Br   UNK     0      21.988  35.643  -0.317  0.00  0.00    -0.096 Br
HETATM    2  C   UNK     0      21.596  37.017   1.003  0.00  0.00     0.096 C 
ENDROOT
BRANCH   2   3
HETATM    3  C   UNK     0      20.521  36.523   1.939  0.00  0.00     0.096 C 
HETATM    4 Br   UNK     0      20.505  34.577   1.938  0.00  0.00    -0.096 Br
ENDBRANCH   2   3
TORSDOF 1
ENDMDL
