MODEL 1
REMARK VINA RESULT:     6.997      0.000      0.000
REMARK INTER + INTRA:           7.406
REMARK INTER:                   7.406
REMARK INTRA:                   0.000
REMARK UNBOUND:                 0.000
REMARK  1 active torsions:
REMARK  status: ('A' for Active; 'I' for Inactive)
REMARK    1  A    between atoms: C_3  and  C_4 
ROOT
HETATM    1 Br   UNK     0      21.443  36.851   1.166  0.00  0.00    -0.096 Br
HETATM    2  C   UNK     0      21.121  35.038   1.794  0.00  0.00     0.096 C 
ENDROOT
BRANCH   2   3
HETATM    3  C   UNK     0      19.799  34.985   2.518  0.00  0.00     0.096 C 
HETATM    4 Br   UNK     0      19.018  36.767   2.575  0.00  0.00    -0.096 Br
ENDBRANCH   2   3
TORSDOF 1
ENDMDL
