REMARK  1 active torsions:
REMARK  status: ('A' for Active; 'I' for Inactive)
REMARK    1  A    between atoms: C_3  and  C_4 
ROOT
HETATM    1 Br   UNK     0      21.449  35.712   2.297  0.00  0.00    -0.096 Br
HETATM    2  C   UNK     0      19.939  36.852   2.751  0.00  0.00     0.096 C 
ENDROOT
BRANCH   2   3
HETATM    3  C   UNK     0      18.762  35.993   3.143  0.00  0.00     0.096 C 
HETATM    4 Br   UNK     0      17.302  37.131   3.744  0.00  0.00    -0.096 Br
ENDBRANCH   2   3
TORSDOF 1
