REMARK  1 active torsions:
REMARK  status: ('A' for Active; 'I' for Inactive)
REMARK    1  A    between atoms: C_3  and  C_4 
ROOT
HETATM    1 Br   UNK     0      21.492  35.546   0.722  0.00  0.00    -0.096 Br
HETATM    2  C   UNK     0      20.502  36.608   2.019  0.00  0.00     0.096 C 
ENDROOT
BRANCH   2   3
HETATM    3  C   UNK     0      19.570  35.712   2.794  0.00  0.00     0.096 C 
HETATM    4 Br   UNK     0      19.104  36.565   4.480  0.00  0.00    -0.096 Br
ENDBRANCH   2   3
TORSDOF 1
