REMARK  1 active torsions:
REMARK  status: ('A' for Active; 'I' for Inactive)
REMARK    1  A    between atoms: C_3  and  C_4 
ROOT
HETATM    1 Br   UNK     0      20.544  37.020   1.778  0.00  0.00    -0.096 Br
HETATM    2  C   UNK     0      19.920  36.456   3.533  0.00  0.00     0.096 C 
ENDROOT
BRANCH   2   3
HETATM    3  C   UNK     0      18.492  35.983   3.429  0.00  0.00     0.096 C 
HETATM    4 Br   UNK     0      17.399  37.392   2.648  0.00  0.00    -0.096 Br
ENDBRANCH   2   3
TORSDOF 1
