REMARK  1 active torsions:
REMARK  status: ('A' for Active; 'I' for Inactive)
REMARK    1  A    between atoms: C_3  and  C_4 
ROOT
HETATM    1 Br   UNK     0      20.813  35.436   1.587  0.00  0.00    -0.096 Br
HETATM    2  C   UNK     0      20.083  36.760   2.812  0.00  0.00     0.096 C 
ENDROOT
BRANCH   2   3
HETATM    3  C   UNK     0      19.162  36.081   3.794  0.00  0.00     0.096 C 
HETATM    4 Br   UNK     0      19.199  37.040   5.488  0.00  0.00    -0.096 Br
ENDBRANCH   2   3
TORSDOF 1
