REMARK  1 active torsions:
REMARK  status: ('A' for Active; 'I' for Inactive)
REMARK    1  A    between atoms: C_3  and  C_4 
ROOT
HETATM    1 Br   UNK     0      21.402  35.802   2.472  0.00  0.00    -0.096 Br
HETATM    2  C   UNK     0      19.823  36.863   2.882  0.00  0.00     0.096 C 
ENDROOT
BRANCH   2   3
HETATM    3  C   UNK     0      18.648  35.948   3.116  0.00  0.00     0.096 C 
HETATM    4 Br   UNK     0      17.079  37.007   3.564  0.00  0.00    -0.096 Br
ENDBRANCH   2   3
TORSDOF 1
