REMARK  1 active torsions:
REMARK  status: ('A' for Active; 'I' for Inactive)
REMARK    1  A    between atoms: C_3  and  C_4 
ROOT
HETATM    1 Br   UNK     0      21.450  35.713   2.299  0.00  0.00    -0.096 Br
HETATM    2  C   UNK     0      19.939  36.854   2.747  0.00  0.00     0.096 C 
ENDROOT
BRANCH   2   3
HETATM    3  C   UNK     0      18.760  35.997   3.136  0.00  0.00     0.096 C 
HETATM    4 Br   UNK     0      17.299  37.136   3.732  0.00  0.00    -0.096 Br
ENDBRANCH   2   3
TORSDOF 1
