MODEL 7
REMARK VINA RESULT:    -2.426      1.280      1.280
REMARK INTER + INTRA:          -2.568
REMARK INTER:                  -2.568
REMARK INTRA:                   0.000
REMARK UNBOUND:                 0.000
REMARK  1 active torsions:
REMARK  status: ('A' for Active; 'I' for Inactive)
REMARK    1  A    between atoms: C_3  and  C_4 
ROOT
HETATM    1 Br   UNK     0      21.213  35.644   0.748  0.00  0.00    -0.096 Br
HETATM    2  C   UNK     0      20.186  35.303   2.365  0.00  0.00     0.096 C 
ENDROOT
BRANCH   2   3
HETATM    3  C   UNK     0      19.993  36.594   3.120  0.00  0.00     0.096 C 
HETATM    4 Br   UNK     0      18.603  36.359   4.461  0.00  0.00    -0.096 Br
ENDBRANCH   2   3
TORSDOF 1
ENDMDL
