MODEL 1
REMARK VINA RESULT:    -2.823      0.000      0.000
REMARK INTER + INTRA:          -2.988
REMARK INTER:                  -2.988
REMARK INTRA:                   0.000
REMARK UNBOUND:                 0.000
REMARK  1 active torsions:
REMARK  status: ('A' for Active; 'I' for Inactive)
REMARK    1  A    between atoms: C_3  and  C_4 
ROOT
HETATM    1 Br   UNK     0      19.404  37.049   5.160  0.00  0.00    -0.096 Br
HETATM    2  C   UNK     0      17.800  36.846   4.077  0.00  0.00     0.096 C 
ENDROOT
BRANCH   2   3
HETATM    3  C   UNK     0      18.190  36.629   2.637  0.00  0.00     0.096 C 
HETATM    4 Br   UNK     0      19.969  35.844   2.558  0.00  0.00    -0.096 Br
ENDBRANCH   2   3
TORSDOF 1
ENDMDL
