MODEL 1
REMARK VINA RESULT:    -0.046      0.000      0.000
REMARK INTER + INTRA:          -0.049
REMARK INTER:                  -0.049
REMARK INTRA:                   0.000
REMARK UNBOUND:                 0.000
REMARK  1 active torsions:
REMARK  status: ('A' for Active; 'I' for Inactive)
REMARK    1  A    between atoms: C_3  and  C_4 
ROOT
HETATM    1 Br   UNK     0      17.515  37.036   4.040  0.00  0.00    -0.096 Br
HETATM    2  C   UNK     0      19.380  36.485   3.961  0.00  0.00     0.096 C 
ENDROOT
BRANCH   2   3
HETATM    3  C   UNK     0      19.629  35.736   2.676  0.00  0.00     0.096 C 
HETATM    4 Br   UNK     0      21.229  36.436   1.818  0.00  0.00    -0.096 Br
ENDBRANCH   2   3
TORSDOF 1
ENDMDL
