MODEL 1
REMARK VINA RESULT:    -2.793      0.000      0.000
REMARK INTER + INTRA:          -2.957
REMARK INTER:                  -2.957
REMARK INTRA:                   0.000
REMARK UNBOUND:                 0.000
REMARK  1 active torsions:
REMARK  status: ('A' for Active; 'I' for Inactive)
REMARK    1  A    between atoms: C_3  and  C_4 
ROOT
HETATM    1 Br   UNK     0      19.772  37.134   5.163  0.00  0.00    -0.096 Br
HETATM    2  C   UNK     0      18.269  36.468   4.122  0.00  0.00     0.096 C 
ENDROOT
BRANCH   2   3
HETATM    3  C   UNK     0      18.621  36.496   2.656  0.00  0.00     0.096 C 
HETATM    4 Br   UNK     0      20.529  36.177   2.442  0.00  0.00    -0.096 Br
ENDBRANCH   2   3
TORSDOF 1
ENDMDL
