MODEL 1
REMARK VINA RESULT:    -2.529      0.000      0.000
REMARK INTER + INTRA:          -2.676
REMARK INTER:                  -2.676
REMARK INTRA:                   0.000
REMARK UNBOUND:                 0.000
REMARK  1 active torsions:
REMARK  status: ('A' for Active; 'I' for Inactive)
REMARK    1  A    between atoms: C_3  and  C_4 
ROOT
HETATM    1 Br   UNK     0      17.680  36.804   2.361  0.00  0.00    -0.096 Br
HETATM    2  C   UNK     0      18.825  36.349   3.868  0.00  0.00     0.096 C 
ENDROOT
BRANCH   2   3
HETATM    3  C   UNK     0      20.270  36.516   3.470  0.00  0.00     0.096 C 
HETATM    4 Br   UNK     0      20.676  35.324   1.986  0.00  0.00    -0.096 Br
ENDBRANCH   2   3
TORSDOF 1
ENDMDL
