MODEL 1
REMARK VINA RESULT:    -2.797      0.000      0.000
REMARK INTER + INTRA:          -2.960
REMARK INTER:                  -2.960
REMARK INTRA:                   0.000
REMARK UNBOUND:                 0.000
REMARK  1 active torsions:
REMARK  status: ('A' for Active; 'I' for Inactive)
REMARK    1  A    between atoms: C_3  and  C_4 
ROOT
HETATM    1 Br   UNK     0      20.070  36.135   2.568  0.00  0.00    -0.096 Br
HETATM    2  C   UNK     0      19.281  36.547   4.298  0.00  0.00     0.096 C 
ENDROOT
BRANCH   2   3
HETATM    3  C   UNK     0      17.835  36.933   4.112  0.00  0.00     0.096 C 
HETATM    4 Br   UNK     0      17.399  36.919   2.216  0.00  0.00    -0.096 Br
ENDBRANCH   2   3
TORSDOF 1
ENDMDL
