MODEL 1
REMARK VINA RESULT:    -2.862      0.000      0.000
REMARK INTER + INTRA:          -3.029
REMARK INTER:                  -3.029
REMARK INTRA:                   0.000
REMARK UNBOUND:                 0.000
REMARK  1 active torsions:
REMARK  status: ('A' for Active; 'I' for Inactive)
REMARK    1  A    between atoms: C_3  and  C_4 
ROOT
HETATM    1 Br   UNK     0      17.359  37.015   3.866  0.00  0.00    -0.096 Br
HETATM    2  C   UNK     0      19.216  36.448   3.994  0.00  0.00     0.096 C 
ENDROOT
BRANCH   2   3
HETATM    3  C   UNK     0      19.583  35.648   2.769  0.00  0.00     0.096 C 
HETATM    4 Br   UNK     0      21.088  36.492   1.869  0.00  0.00    -0.096 Br
ENDBRANCH   2   3
TORSDOF 1
ENDMDL
