MODEL 1
REMARK VINA RESULT:    -1.797      0.000      0.000
REMARK INTER + INTRA:          -1.902
REMARK INTER:                  -1.902
REMARK INTRA:                   0.000
REMARK UNBOUND:                 0.000
REMARK  1 active torsions:
REMARK  status: ('A' for Active; 'I' for Inactive)
REMARK    1  A    between atoms: C_3  and  C_4 
ROOT
HETATM    1 Br   UNK     0      23.174  31.925  -4.150  0.00  0.00    -0.096 Br
HETATM    2  C   UNK     0      24.021  32.828  -2.648  0.00  0.00     0.096 C 
ENDROOT
BRANCH   2   3
HETATM    3  C   UNK     0      25.439  32.335  -2.501  0.00  0.00     0.096 C 
HETATM    4 Br   UNK     0      26.671  33.713  -3.108  0.00  0.00    -0.096 Br
ENDBRANCH   2   3
TORSDOF 1
ENDMDL
