MODEL 1
REMARK VINA RESULT:    -1.796      0.000      0.000
REMARK INTER + INTRA:          -1.901
REMARK INTER:                  -1.901
REMARK INTRA:                   0.000
REMARK UNBOUND:                 0.000
REMARK  1 active torsions:
REMARK  status: ('A' for Active; 'I' for Inactive)
REMARK    1  A    between atoms: C_3  and  C_4 
ROOT
HETATM    1 Br   UNK     0      23.095  31.975  -4.057  0.00  0.00    -0.096 Br
HETATM    2  C   UNK     0      24.082  32.880  -2.645  0.00  0.00     0.096 C 
ENDROOT
BRANCH   2   3
HETATM    3  C   UNK     0      25.503  32.376  -2.623  0.00  0.00     0.096 C 
HETATM    4 Br   UNK     0      26.713  33.826  -3.091  0.00  0.00    -0.096 Br
ENDBRANCH   2   3
TORSDOF 1
ENDMDL
