MODEL 1
REMARK VINA RESULT:    -2.312      0.000      0.000
REMARK INTER + INTRA:          -2.447
REMARK INTER:                  -2.447
REMARK INTRA:                   0.000
REMARK UNBOUND:                 0.000
REMARK  1 active torsions:
REMARK  status: ('A' for Active; 'I' for Inactive)
REMARK    1  A    between atoms: C_3  and  C_4 
ROOT
HETATM    1 Br   UNK     0      17.850  36.754   1.999  0.00  0.00    -0.096 Br
HETATM    2  C   UNK     0      18.612  36.337   3.741  0.00  0.00     0.096 C 
ENDROOT
BRANCH   2   3
HETATM    3  C   UNK     0      20.075  36.703   3.750  0.00  0.00     0.096 C 
HETATM    4 Br   UNK     0      20.847  36.335   2.003  0.00  0.00    -0.096 Br
ENDBRANCH   2   3
TORSDOF 1
ENDMDL
