MODEL 1
REMARK VINA RESULT:    -2.077      0.000      0.000
REMARK INTER + INTRA:          -2.199
REMARK INTER:                  -2.199
REMARK INTRA:                   0.000
REMARK UNBOUND:                 0.000
REMARK  1 active torsions:
REMARK  status: ('A' for Active; 'I' for Inactive)
REMARK    1  A    between atoms: C_3  and  C_4 
ROOT
HETATM    1 Br   UNK     0      18.064  36.982   2.509  0.00  0.00    -0.096 Br
HETATM    2  C   UNK     0      19.473  35.884   3.280  0.00  0.00     0.096 C 
ENDROOT
BRANCH   2   3
HETATM    3  C   UNK     0      20.283  35.256   2.173  0.00  0.00     0.096 C 
HETATM    4 Br   UNK     0      21.442  36.600   1.375  0.00  0.00    -0.096 Br
ENDBRANCH   2   3
TORSDOF 1
ENDMDL
