MODEL 1
REMARK VINA RESULT:    -1.796      0.000      0.000
REMARK INTER + INTRA:          -1.900
REMARK INTER:                  -1.900
REMARK INTRA:                   0.000
REMARK UNBOUND:                 0.000
REMARK  1 active torsions:
REMARK  status: ('A' for Active; 'I' for Inactive)
REMARK    1  A    between atoms: C_3  and  C_4 
ROOT
HETATM    1 Br   UNK     0      23.203  31.910  -4.183  0.00  0.00    -0.096 Br
HETATM    2  C   UNK     0      23.993  32.801  -2.644  0.00  0.00     0.096 C 
ENDROOT
BRANCH   2   3
HETATM    3  C   UNK     0      25.418  32.339  -2.472  0.00  0.00     0.096 C 
HETATM    4 Br   UNK     0      26.630  33.728  -3.097  0.00  0.00    -0.096 Br
ENDBRANCH   2   3
TORSDOF 1
ENDMDL
