MODEL 1
REMARK VINA RESULT:    -1.751      0.000      0.000
REMARK INTER + INTRA:          -1.854
REMARK INTER:                  -1.854
REMARK INTRA:                   0.000
REMARK UNBOUND:                 0.000
REMARK  1 active torsions:
REMARK  status: ('A' for Active; 'I' for Inactive)
REMARK    1  A    between atoms: C_3  and  C_4 
ROOT
HETATM    1 Br   UNK     0      23.172  31.988  -4.177  0.00  0.00    -0.096 Br
HETATM    2  C   UNK     0      24.013  32.734  -2.589  0.00  0.00     0.096 C 
ENDROOT
BRANCH   2   3
HETATM    3  C   UNK     0      25.462  32.320  -2.546  0.00  0.00     0.096 C 
HETATM    4 Br   UNK     0      26.585  33.848  -2.985  0.00  0.00    -0.096 Br
ENDBRANCH   2   3
TORSDOF 1
ENDMDL
