MODEL 1
REMARK VINA RESULT:    -2.800      0.000      0.000
REMARK INTER + INTRA:          -2.964
REMARK INTER:                  -2.964
REMARK INTRA:                   0.000
REMARK UNBOUND:                 0.000
REMARK  1 active torsions:
REMARK  status: ('A' for Active; 'I' for Inactive)
REMARK    1  A    between atoms: C_3  and  C_4 
ROOT
HETATM    1 Br   UNK     0      19.774  37.118   5.176  0.00  0.00    -0.096 Br
HETATM    2  C   UNK     0      18.227  36.535   4.149  0.00  0.00     0.096 C 
ENDROOT
BRANCH   2   3
HETATM    3  C   UNK     0      18.582  36.497   2.684  0.00  0.00     0.096 C 
HETATM    4 Br   UNK     0      20.494  36.187   2.488  0.00  0.00    -0.096 Br
ENDBRANCH   2   3
TORSDOF 1
ENDMDL
