MODEL 1
REMARK VINA RESULT:    -3.255      0.000      0.000
REMARK INTER + INTRA:          -3.445
REMARK INTER:                  -3.445
REMARK INTRA:                   0.000
REMARK UNBOUND:                 0.000
REMARK  1 active torsions:
REMARK  status: ('A' for Active; 'I' for Inactive)
REMARK    1  A    between atoms: C_3  and  C_4 
ROOT
HETATM    1 Br   UNK     0      17.437  36.885   2.542  0.00  0.00    -0.096 Br
HETATM    2  C   UNK     0      18.936  36.177   3.561  0.00  0.00     0.096 C 
ENDROOT
BRANCH   2   3
HETATM    3  C   UNK     0      19.821  35.362   2.652  0.00  0.00     0.096 C 
HETATM    4 Br   UNK     0      21.184  36.512   1.873  0.00  0.00    -0.096 Br
ENDBRANCH   2   3
TORSDOF 1
ENDMDL
