MODEL 1
REMARK VINA RESULT:    -1.946      0.000      0.000
REMARK INTER + INTRA:          -2.060
REMARK INTER:                  -2.060
REMARK INTRA:                   0.000
REMARK UNBOUND:                 0.000
REMARK  1 active torsions:
REMARK  status: ('A' for Active; 'I' for Inactive)
REMARK    1  A    between atoms: C_3  and  C_4 
ROOT
HETATM    1 Br   UNK     0      23.141  31.866  -4.220  0.00  0.00    -0.096 Br
HETATM    2  C   UNK     0      23.836  32.828  -2.678  0.00  0.00     0.096 C 
ENDROOT
BRANCH   2   3
HETATM    3  C   UNK     0      25.343  32.785  -2.696  0.00  0.00     0.096 C 
HETATM    4 Br   UNK     0      25.973  31.571  -1.311  0.00  0.00    -0.096 Br
ENDBRANCH   2   3
TORSDOF 1
ENDMDL
