MODEL 1
REMARK VINA RESULT:    -2.339      0.000      0.000
REMARK INTER + INTRA:          -2.475
REMARK INTER:                  -2.475
REMARK INTRA:                   0.000
REMARK UNBOUND:                 0.000
REMARK  1 active torsions:
REMARK  status: ('A' for Active; 'I' for Inactive)
REMARK    1  A    between atoms: C_3  and  C_4 
ROOT
HETATM    1 Br   UNK     0      18.596  36.268   3.418  0.00  0.00    -0.096 Br
HETATM    2  C   UNK     0      20.432  36.913   3.414  0.00  0.00     0.096 C 
ENDROOT
BRANCH   2   3
HETATM    3  C   UNK     0      21.068  36.612   2.080  0.00  0.00     0.096 C 
HETATM    4 Br   UNK     0      20.826  34.728   1.658  0.00  0.00    -0.096 Br
ENDBRANCH   2   3
TORSDOF 1
ENDMDL
