MODEL 1
REMARK VINA RESULT:    -0.048      0.000      0.000
REMARK INTER + INTRA:          -0.051
REMARK INTER:                  -0.051
REMARK INTRA:                   0.000
REMARK UNBOUND:                 0.000
REMARK  1 active torsions:
REMARK  status: ('A' for Active; 'I' for Inactive)
REMARK    1  A    between atoms: C_3  and  C_4 
ROOT
HETATM    1 Br   UNK     0      22.011  35.741  -0.146  0.00  0.00    -0.096 Br
HETATM    2  C   UNK     0      21.230  37.095   1.014  0.00  0.00     0.096 C 
ENDROOT
BRANCH   2   3
HETATM    3  C   UNK     0      20.220  36.450   1.929  0.00  0.00     0.096 C 
HETATM    4 Br   UNK     0      20.488  34.523   1.938  0.00  0.00    -0.096 Br
ENDBRANCH   2   3
TORSDOF 1
ENDMDL
