MODEL 1
REMARK VINA RESULT:    -3.310      0.000      0.000
REMARK INTER + INTRA:          -3.504
REMARK INTER:                  -3.504
REMARK INTRA:                   0.000
REMARK UNBOUND:                 0.000
REMARK  1 active torsions:
REMARK  status: ('A' for Active; 'I' for Inactive)
REMARK    1  A    between atoms: C_3  and  C_4 
ROOT
HETATM    1 Br   UNK     0      19.832  37.160   5.116  0.00  0.00    -0.096 Br
HETATM    2  C   UNK     0      18.795  35.996   3.952  0.00  0.00     0.096 C 
ENDROOT
BRANCH   2   3
HETATM    3  C   UNK     0      19.062  36.358   2.512  0.00  0.00     0.096 C 
HETATM    4 Br   UNK     0      20.967  36.200   2.147  0.00  0.00    -0.096 Br
ENDBRANCH   2   3
TORSDOF 1
ENDMDL
