MODEL 1
REMARK VINA RESULT:    -1.900      0.000      0.000
REMARK INTER + INTRA:          -2.011
REMARK INTER:                  -2.011
REMARK INTRA:                   0.000
REMARK UNBOUND:                 0.000
REMARK  1 active torsions:
REMARK  status: ('A' for Active; 'I' for Inactive)
REMARK    1  A    between atoms: C_3  and  C_4 
ROOT
HETATM    1 Br   UNK     0      23.197  31.829  -4.300  0.00  0.00    -0.096 Br
HETATM    2  C   UNK     0      23.666  32.825  -2.696  0.00  0.00     0.096 C 
ENDROOT
BRANCH   2   3
HETATM    3  C   UNK     0      25.166  32.942  -2.597  0.00  0.00     0.096 C 
HETATM    4 Br   UNK     0      25.828  31.686  -1.266  0.00  0.00    -0.096 Br
ENDBRANCH   2   3
TORSDOF 1
ENDMDL
