MODEL 1
REMARK VINA RESULT:    -0.365      0.000      0.000
REMARK INTER + INTRA:          -0.386
REMARK INTER:                  -0.386
REMARK INTRA:                   0.000
REMARK UNBOUND:                 0.000
REMARK  1 active torsions:
REMARK  status: ('A' for Active; 'I' for Inactive)
REMARK    1  A    between atoms: C_3  and  C_4 
ROOT
HETATM    1 Br   UNK     0      22.672  32.259  -3.421  0.00  0.00    -0.096 Br
HETATM    2  C   UNK     0      24.609  32.438  -3.373  0.00  0.00     0.096 C 
ENDROOT
BRANCH   2   3
HETATM    3  C   UNK     0      24.983  33.628  -2.525  0.00  0.00     0.096 C 
HETATM    4 Br   UNK     0      23.373  34.412  -1.762  0.00  0.00    -0.096 Br
ENDBRANCH   2   3
TORSDOF 1
ENDMDL
