MODEL 1
REMARK VINA RESULT:    -3.029      0.000      0.000
REMARK INTER + INTRA:          -3.206
REMARK INTER:                  -3.206
REMARK INTRA:                   0.000
REMARK UNBOUND:                 0.000
REMARK  1 active torsions:
REMARK  status: ('A' for Active; 'I' for Inactive)
REMARK    1  A    between atoms: C_3  and  C_4 
ROOT
HETATM    1 Br   UNK     0      18.195  36.945   4.242  0.00  0.00    -0.096 Br
HETATM    2  C   UNK     0      18.499  36.303   2.431  0.00  0.00     0.096 C 
ENDROOT
BRANCH   2   3
HETATM    3  C   UNK     0      19.737  35.442   2.404  0.00  0.00     0.096 C 
HETATM    4 Br   UNK     0      21.243  36.492   1.760  0.00  0.00    -0.096 Br
ENDBRANCH   2   3
TORSDOF 1
ENDMDL
