MODEL 1
REMARK VINA RESULT:    -3.130      0.000      0.000
REMARK INTER + INTRA:          -3.313
REMARK INTER:                  -3.313
REMARK INTRA:                   0.000
REMARK UNBOUND:                 0.000
REMARK  1 active torsions:
REMARK  status: ('A' for Active; 'I' for Inactive)
REMARK    1  A    between atoms: C_3  and  C_4 
ROOT
HETATM    1 Br   UNK     0      18.133  37.087   4.443  0.00  0.00    -0.096 Br
HETATM    2  C   UNK     0      18.433  36.431   2.635  0.00  0.00     0.096 C 
ENDROOT
BRANCH   2   3
HETATM    3  C   UNK     0      19.637  35.523   2.624  0.00  0.00     0.096 C 
HETATM    4 Br   UNK     0      21.129  36.436   1.771  0.00  0.00    -0.096 Br
ENDBRANCH   2   3
TORSDOF 1
ENDMDL
