MODEL 1
REMARK VINA RESULT:    17.368      0.000      0.000
REMARK INTER + INTRA:          18.383
REMARK INTER:                  18.383
REMARK INTRA:                   0.000
REMARK UNBOUND:                 0.000
REMARK  1 active torsions:
REMARK  status: ('A' for Active; 'I' for Inactive)
REMARK    1  A    between atoms: C_3  and  C_4 
ROOT
HETATM    1 Br   UNK     0      21.793  35.394  -0.196  0.00  0.00    -0.096 Br
HETATM    2  C   UNK     0      21.449  36.949   0.922  0.00  0.00     0.096 C 
ENDROOT
BRANCH   2   3
HETATM    3  C   UNK     0      20.543  36.557   2.063  0.00  0.00     0.096 C 
HETATM    4 Br   UNK     0      20.299  34.626   2.063  0.00  0.00    -0.096 Br
ENDBRANCH   2   3
TORSDOF 1
ENDMDL
