MODEL 1
REMARK VINA RESULT:     0.115      0.000      0.000
REMARK INTER + INTRA:           0.122
REMARK INTER:                   0.122
REMARK INTRA:                   0.000
REMARK UNBOUND:                 0.000
REMARK  1 active torsions:
REMARK  status: ('A' for Active; 'I' for Inactive)
REMARK    1  A    between atoms: C_3  and  C_4 
ROOT
HETATM    1 Br   UNK     0      20.871  36.646   1.726  0.00  0.00    -0.096 Br
HETATM    2  C   UNK     0      21.522  35.190   0.610  0.00  0.00     0.096 C 
ENDROOT
BRANCH   2   3
HETATM    3  C   UNK     0      22.016  35.745  -0.703  0.00  0.00     0.096 C 
HETATM    4 Br   UNK     0      23.022  34.375  -1.649  0.00  0.00    -0.096 Br
ENDBRANCH   2   3
TORSDOF 1
ENDMDL
