MODEL 1
REMARK VINA RESULT:    -0.885      0.000      0.000
REMARK INTER + INTRA:          -0.937
REMARK INTER:                  -0.937
REMARK INTRA:                   0.000
REMARK UNBOUND:                 0.000
REMARK  1 active torsions:
REMARK  status: ('A' for Active; 'I' for Inactive)
REMARK    1  A    between atoms: C_3  and  C_4 
ROOT
HETATM    1 Br   UNK     0      23.492  33.912  -1.811  0.00  0.00    -0.096 Br
HETATM    2  C   UNK     0      25.148  33.371  -2.677  0.00  0.00     0.096 C 
ENDROOT
BRANCH   2   3
HETATM    3  C   UNK     0      24.874  32.217  -3.609  0.00  0.00     0.096 C 
HETATM    4 Br   UNK     0      22.957  31.890  -3.690  0.00  0.00    -0.096 Br
ENDBRANCH   2   3
TORSDOF 1
ENDMDL
