MODEL 1
REMARK VINA RESULT:    -0.066      0.000      0.000
REMARK INTER + INTRA:          -0.069
REMARK INTER:                  -0.069
REMARK INTRA:                   0.000
REMARK UNBOUND:                 0.000
REMARK  1 active torsions:
REMARK  status: ('A' for Active; 'I' for Inactive)
REMARK    1  A    between atoms: C_3  and  C_4 
ROOT
HETATM    1 Br   UNK     0      22.566  32.372  -3.298  0.00  0.00    -0.096 Br
HETATM    2  C   UNK     0      24.512  32.373  -3.288  0.00  0.00     0.096 C 
ENDROOT
BRANCH   2   3
HETATM    3  C   UNK     0      25.011  33.627  -2.615  0.00  0.00     0.096 C 
HETATM    4 Br   UNK     0      23.528  34.520  -1.727  0.00  0.00    -0.096 Br
ENDBRANCH   2   3
TORSDOF 1
ENDMDL
