MODEL 1
REMARK VINA RESULT:    -1.599      0.000      0.000
REMARK INTER + INTRA:          -1.692
REMARK INTER:                  -1.692
REMARK INTRA:                   0.000
REMARK UNBOUND:                 0.000
REMARK  1 active torsions:
REMARK  status: ('A' for Active; 'I' for Inactive)
REMARK    1  A    between atoms: C_3  and  C_4 
ROOT
HETATM    1 Br   UNK     0      25.429  31.505  -3.977  0.00  0.00    -0.096 Br
HETATM    2  C   UNK     0      24.945  32.417  -2.327  0.00  0.00     0.096 C 
ENDROOT
BRANCH   2   3
HETATM    3  C   UNK     0      23.558  32.993  -2.459  0.00  0.00     0.096 C 
HETATM    4 Br   UNK     0      22.680  32.220  -4.015  0.00  0.00    -0.096 Br
ENDBRANCH   2   3
TORSDOF 1
ENDMDL
