MODEL 1
REMARK VINA RESULT:    -1.922      0.000      0.000
REMARK INTER + INTRA:          -2.035
REMARK INTER:                  -2.035
REMARK INTRA:                   0.000
REMARK UNBOUND:                 0.000
REMARK  1 active torsions:
REMARK  status: ('A' for Active; 'I' for Inactive)
REMARK    1  A    between atoms: C_3  and  C_4 
ROOT
HETATM    1 Br   UNK     0      23.171  31.985  -4.126  0.00  0.00    -0.096 Br
HETATM    2  C   UNK     0      23.978  32.814  -2.561  0.00  0.00     0.096 C 
ENDROOT
BRANCH   2   3
HETATM    3  C   UNK     0      25.474  32.627  -2.608  0.00  0.00     0.096 C 
HETATM    4 Br   UNK     0      26.036  31.520  -1.110  0.00  0.00    -0.096 Br
ENDBRANCH   2   3
TORSDOF 1
ENDMDL
