MODEL 1
REMARK VINA RESULT:    -0.726      0.000      0.000
REMARK INTER + INTRA:          -0.769
REMARK INTER:                  -0.769
REMARK INTRA:                   0.000
REMARK UNBOUND:                 0.000
REMARK  1 active torsions:
REMARK  status: ('A' for Active; 'I' for Inactive)
REMARK    1  A    between atoms: C_3  and  C_4 
ROOT
HETATM    1 Br   UNK     0      22.784  32.065  -3.570  0.00  0.00    -0.096 Br
HETATM    2  C   UNK     0      24.729  32.094  -3.509  0.00  0.00     0.096 C 
ENDROOT
BRANCH   2   3
HETATM    3  C   UNK     0      25.192  33.353  -2.820  0.00  0.00     0.096 C 
HETATM    4 Br   UNK     0      23.698  34.158  -1.867  0.00  0.00    -0.096 Br
ENDBRANCH   2   3
TORSDOF 1
ENDMDL
