REMARK  1 active torsions:
REMARK  status: ('A' for Active; 'I' for Inactive)
REMARK    1  A    between atoms: C_3  and  C_4 
ROOT
HETATM    1 Br   UNK     0      20.821  35.448   1.424  0.00  0.00    -0.096 Br
HETATM    2  C   UNK     0      20.487  36.600   2.957  0.00  0.00     0.096 C 
ENDROOT
BRANCH   2   3
HETATM    3  C   UNK     0      19.264  36.115   3.697  0.00  0.00     0.096 C 
HETATM    4 Br   UNK     0      19.064  37.119   5.349  0.00  0.00    -0.096 Br
ENDBRANCH   2   3
TORSDOF 1
