REMARK  1 active torsions:
REMARK  status: ('A' for Active; 'I' for Inactive)
REMARK    1  A    between atoms: C_3  and  C_4 
ROOT
HETATM    1 Br   UNK     0      20.626  34.631   2.192  0.00  0.00    -0.096 Br
HETATM    2  C   UNK     0      19.869  36.418   2.346  0.00  0.00     0.096 C 
ENDROOT
BRANCH   2   3
HETATM    3  C   UNK     0      19.406  36.650   3.764  0.00  0.00     0.096 C 
HETATM    4 Br   UNK     0      17.527  37.145   3.760  0.00  0.00    -0.096 Br
ENDBRANCH   2   3
TORSDOF 1
