REMARK  1 active torsions:
REMARK  status: ('A' for Active; 'I' for Inactive)
REMARK    1  A    between atoms: C_3  and  C_4 
ROOT
HETATM    1 Br   UNK     0      22.814  34.031  -1.740  0.00  0.00    -0.096 Br
HETATM    2  C   UNK     0      24.102  33.078  -2.845  0.00  0.00     0.096 C 
ENDROOT
BRANCH   2   3
HETATM    3  C   UNK     0      25.031  32.283  -1.962  0.00  0.00     0.096 C 
HETATM    4 Br   UNK     0      25.858  30.862  -3.002  0.00  0.00    -0.096 Br
ENDBRANCH   2   3
TORSDOF 1
