REMARK  1 active torsions:
REMARK  status: ('A' for Active; 'I' for Inactive)
REMARK    1  A    between atoms: C_3  and  C_4 
ROOT
HETATM    1 Br   UNK     0      22.090  35.253  -0.440  0.00  0.00    -0.096 Br
HETATM    2  C   UNK     0      21.263  36.101   1.104  0.00  0.00     0.096 C 
ENDROOT
BRANCH   2   3
HETATM    3  C   UNK     0      20.523  35.065   1.914  0.00  0.00     0.096 C 
HETATM    4 Br   UNK     0      19.341  35.950   3.178  0.00  0.00    -0.096 Br
ENDBRANCH   2   3
TORSDOF 1
