REMARK  1 active torsions:
REMARK  status: ('A' for Active; 'I' for Inactive)
REMARK    1  A    between atoms: C_3  and  C_4 
ROOT
HETATM    1 Br   UNK     0      21.153  35.557   1.115  0.00  0.00    -0.096 Br
HETATM    2  C   UNK     0      20.550  36.553   2.676  0.00  0.00     0.096 C 
ENDROOT
BRANCH   2   3
HETATM    3  C   UNK     0      19.338  35.877   3.270  0.00  0.00     0.096 C 
HETATM    4 Br   UNK     0      18.793  36.819   4.880  0.00  0.00    -0.096 Br
ENDBRANCH   2   3
TORSDOF 1
