REMARK  1 active torsions:
REMARK  status: ('A' for Active; 'I' for Inactive)
REMARK    1  A    between atoms: C_3  and  C_4 
ROOT
HETATM    1 Br   UNK     0      22.700  34.756  -1.249  0.00  0.00    -0.096 Br
HETATM    2  C   UNK     0      21.723  35.856   0.025  0.00  0.00     0.096 C 
ENDROOT
BRANCH   2   3
HETATM    3  C   UNK     0      21.676  35.157   1.363  0.00  0.00     0.096 C 
HETATM    4 Br   UNK     0      20.306  35.975   2.474  0.00  0.00    -0.096 Br
ENDBRANCH   2   3
TORSDOF 1
