REMARK  1 active torsions:
REMARK  status: ('A' for Active; 'I' for Inactive)
REMARK    1  A    between atoms: C_3  and  C_4 
ROOT
HETATM    1 Br   UNK     0      21.166  35.911   0.652  0.00  0.00    -0.096 Br
HETATM    2  C   UNK     0      20.311  36.631   2.246  0.00  0.00     0.096 C 
ENDROOT
BRANCH   2   3
HETATM    3  C   UNK     0      19.312  35.633   2.779  0.00  0.00     0.096 C 
HETATM    4 Br   UNK     0      18.161  36.498   4.085  0.00  0.00    -0.096 Br
ENDBRANCH   2   3
TORSDOF 1
