REMARK  1 active torsions:
REMARK  status: ('A' for Active; 'I' for Inactive)
REMARK    1  A    between atoms: C_3  and  C_4 
ROOT
HETATM    1 Br   UNK     0      21.313  36.167   0.883  0.00  0.00    -0.096 Br
HETATM    2  C   UNK     0      22.268  35.705  -0.749  0.00  0.00     0.096 C 
ENDROOT
BRANCH   2   3
HETATM    3  C   UNK     0      22.252  34.208  -0.937  0.00  0.00     0.096 C 
HETATM    4 Br   UNK     0      23.772  33.674  -2.024  0.00  0.00    -0.096 Br
ENDBRANCH   2   3
TORSDOF 1
