REMARK  1 active torsions:
REMARK  status: ('A' for Active; 'I' for Inactive)
REMARK    1  A    between atoms: C_3  and  C_4 
ROOT
HETATM    1 Br   UNK     0      21.425  35.962   0.643  0.00  0.00    -0.096 Br
HETATM    2  C   UNK     0      22.420  35.516  -0.969  0.00  0.00     0.096 C 
ENDROOT
BRANCH   2   3
HETATM    3  C   UNK     0      22.412  34.021  -1.170  0.00  0.00     0.096 C 
HETATM    4 Br   UNK     0      23.938  33.503  -2.256  0.00  0.00    -0.096 Br
ENDBRANCH   2   3
TORSDOF 1
