REMARK  1 active torsions:
REMARK  status: ('A' for Active; 'I' for Inactive)
REMARK    1  A    between atoms: C_3  and  C_4 
ROOT
HETATM    1 Br   UNK     0      22.172  35.040  -0.530  0.00  0.00    -0.096 Br
HETATM    2  C   UNK     0      22.935  34.380  -2.195  0.00  0.00     0.096 C 
ENDROOT
BRANCH   2   3
HETATM    3  C   UNK     0      23.758  33.147  -1.917  0.00  0.00     0.096 C 
HETATM    4 Br   UNK     0      24.503  32.474  -3.583  0.00  0.00    -0.096 Br
ENDBRANCH   2   3
TORSDOF 1
