REMARK  1 active torsions:
REMARK  status: ('A' for Active; 'I' for Inactive)
REMARK    1  A    between atoms: C_3  and  C_4 
ROOT
HETATM    1 Br   UNK     0      21.356  35.561   0.232  0.00  0.00    -0.096 Br
HETATM    2  C   UNK     0      20.645  36.420   1.827  0.00  0.00     0.096 C 
ENDROOT
BRANCH   2   3
HETATM    3  C   UNK     0      19.830  35.425   2.617  0.00  0.00     0.096 C 
HETATM    4 Br   UNK     0      18.705  36.369   3.891  0.00  0.00    -0.096 Br
ENDBRANCH   2   3
TORSDOF 1
