REMARK  1 active torsions:
REMARK  status: ('A' for Active; 'I' for Inactive)
REMARK    1  A    between atoms: C_3  and  C_4 
ROOT
HETATM    1 Br   UNK     0      23.073  33.722  -1.773  0.00  0.00    -0.096 Br
HETATM    2  C   UNK     0      21.998  35.154  -1.008  0.00  0.00     0.096 C 
ENDROOT
BRANCH   2   3
HETATM    3  C   UNK     0      22.188  35.183   0.489  0.00  0.00     0.096 C 
HETATM    4 Br   UNK     0      20.464  35.406   1.358  0.00  0.00    -0.096 Br
ENDBRANCH   2   3
TORSDOF 1
