REMARK  1 active torsions:
REMARK  status: ('A' for Active; 'I' for Inactive)
REMARK    1  A    between atoms: C_3  and  C_4 
ROOT
HETATM    1 Br   UNK     0      22.912  34.428  -1.407  0.00  0.00    -0.096 Br
HETATM    2  C   UNK     0      21.793  35.607  -0.335  0.00  0.00     0.096 C 
ENDROOT
BRANCH   2   3
HETATM    3  C   UNK     0      21.764  35.114   1.092  0.00  0.00     0.096 C 
HETATM    4 Br   UNK     0      20.078  35.618   1.918  0.00  0.00    -0.096 Br
ENDBRANCH   2   3
TORSDOF 1
