REMARK  1 active torsions:
REMARK  status: ('A' for Active; 'I' for Inactive)
REMARK    1  A    between atoms: C_3  and  C_4 
ROOT
HETATM    1 Br   UNK     0      22.440  34.793  -1.057  0.00  0.00    -0.096 Br
HETATM    2  C   UNK     0      23.408  33.788  -2.414  0.00  0.00     0.096 C 
ENDROOT
BRANCH   2   3
HETATM    3  C   UNK     0      24.315  32.785  -1.746  0.00  0.00     0.096 C 
HETATM    4 Br   UNK     0      25.206  31.711  -3.101  0.00  0.00    -0.096 Br
ENDBRANCH   2   3
TORSDOF 1
