REMARK  1 active torsions:
REMARK  status: ('A' for Active; 'I' for Inactive)
REMARK    1  A    between atoms: C_3  and  C_4 
ROOT
HETATM    1 Br   UNK     0      21.427  35.815   0.489  0.00  0.00    -0.096 Br
HETATM    2  C   UNK     0      22.476  35.375  -1.090  0.00  0.00     0.096 C 
ENDROOT
BRANCH   2   3
HETATM    3  C   UNK     0      22.506  33.878  -1.274  0.00  0.00     0.096 C 
HETATM    4 Br   UNK     0      24.071  33.382  -2.314  0.00  0.00    -0.096 Br
ENDBRANCH   2   3
TORSDOF 1
