REMARK  1 active torsions:
REMARK  status: ('A' for Active; 'I' for Inactive)
REMARK    1  A    between atoms: C_3  and  C_4 
ROOT
HETATM    1 Br   UNK     0      21.367  35.636   0.509  0.00  0.00    -0.096 Br
HETATM    2  C   UNK     0      20.683  36.503   2.112  0.00  0.00     0.096 C 
ENDROOT
BRANCH   2   3
HETATM    3  C   UNK     0      19.638  35.624   2.756  0.00  0.00     0.096 C 
HETATM    4 Br   UNK     0      18.737  36.612   4.167  0.00  0.00    -0.096 Br
ENDBRANCH   2   3
TORSDOF 1
