REMARK  1 active torsions:
REMARK  status: ('A' for Active; 'I' for Inactive)
REMARK    1  A    between atoms: C_3  and  C_4 
ROOT
HETATM    1 Br   UNK     0      21.555  35.520   0.173  0.00  0.00    -0.096 Br
HETATM    2  C   UNK     0      22.658  35.111  -1.377  0.00  0.00     0.096 C 
ENDROOT
BRANCH   2   3
HETATM    3  C   UNK     0      22.749  33.615  -1.550  0.00  0.00     0.096 C 
HETATM    4 Br   UNK     0      24.344  33.174  -2.570  0.00  0.00    -0.096 Br
ENDBRANCH   2   3
TORSDOF 1
