REMARK  1 active torsions:
REMARK  status: ('A' for Active; 'I' for Inactive)
REMARK    1  A    between atoms: C_3  and  C_4 
ROOT
HETATM    1 Br   UNK     0      21.655  35.420   0.116  0.00  0.00    -0.096 Br
HETATM    2  C   UNK     0      22.734  34.987  -1.444  0.00  0.00     0.096 C 
ENDROOT
BRANCH   2   3
HETATM    3  C   UNK     0      23.016  33.505  -1.466  0.00  0.00     0.096 C 
HETATM    4 Br   UNK     0      24.388  33.123  -2.789  0.00  0.00    -0.096 Br
ENDBRANCH   2   3
TORSDOF 1
