REMARK  1 active torsions:
REMARK  status: ('A' for Active; 'I' for Inactive)
REMARK    1  A    between atoms: C_3  and  C_4 
ROOT
HETATM    1 Br   UNK     0      21.870  35.393  -0.188  0.00  0.00    -0.096 Br
HETATM    2  C   UNK     0      23.003  34.974  -1.714  0.00  0.00     0.096 C 
ENDROOT
BRANCH   2   3
HETATM    3  C   UNK     0      23.392  33.517  -1.667  0.00  0.00     0.096 C 
HETATM    4 Br   UNK     0      24.664  33.137  -3.088  0.00  0.00    -0.096 Br
ENDBRANCH   2   3
TORSDOF 1
