REMARK  1 active torsions:
REMARK  status: ('A' for Active; 'I' for Inactive)
REMARK    1  A    between atoms: C_3  and  C_4 
ROOT
HETATM    1 Br   UNK     0      22.538  34.809  -1.198  0.00  0.00    -0.096 Br
HETATM    2  C   UNK     0      21.566  35.856   0.123  0.00  0.00     0.096 C 
ENDROOT
BRANCH   2   3
HETATM    3  C   UNK     0      21.267  34.997   1.328  0.00  0.00     0.096 C 
HETATM    4 Br   UNK     0      19.984  35.906   2.472  0.00  0.00    -0.096 Br
ENDBRANCH   2   3
TORSDOF 1
