REMARK  1 active torsions:
REMARK  status: ('A' for Active; 'I' for Inactive)
REMARK    1  A    between atoms: C_3  and  C_4 
ROOT
HETATM    1 Br   UNK     0      23.090  34.105  -1.686  0.00  0.00    -0.096 Br
HETATM    2  C   UNK     0      21.956  35.395  -0.770  0.00  0.00     0.096 C 
ENDROOT
BRANCH   2   3
HETATM    3  C   UNK     0      22.132  35.252   0.722  0.00  0.00     0.096 C 
HETATM    4 Br   UNK     0      20.404  35.407   1.598  0.00  0.00    -0.096 Br
ENDBRANCH   2   3
TORSDOF 1
