REMARK  1 active torsions:
REMARK  status: ('A' for Active; 'I' for Inactive)
REMARK    1  A    between atoms: C_3  and  C_4 
ROOT
HETATM    1 Br   UNK     0      22.881  34.576  -1.615  0.00  0.00    -0.096 Br
HETATM    2  C   UNK     0      21.814  35.700  -0.437  0.00  0.00     0.096 C 
ENDROOT
BRANCH   2   3
HETATM    3  C   UNK     0      21.797  35.102   0.950  0.00  0.00     0.096 C 
HETATM    4 Br   UNK     0      20.239  35.750   1.916  0.00  0.00    -0.096 Br
ENDBRANCH   2   3
TORSDOF 1
