REMARK  1 active torsions:
REMARK  status: ('A' for Active; 'I' for Inactive)
REMARK    1  A    between atoms: C_3  and  C_4 
ROOT
HETATM    1 Br   UNK     0      22.348  35.013  -0.974  0.00  0.00    -0.096 Br
HETATM    2  C   UNK     0      21.567  36.054   0.473  0.00  0.00     0.096 C 
ENDROOT
BRANCH   2   3
HETATM    3  C   UNK     0      21.133  35.128   1.584  0.00  0.00     0.096 C 
HETATM    4 Br   UNK     0      20.163  36.140   2.931  0.00  0.00    -0.096 Br
ENDBRANCH   2   3
TORSDOF 1
