REMARK  1 active torsions:
REMARK  status: ('A' for Active; 'I' for Inactive)
REMARK    1  A    between atoms: C_3  and  C_4 
ROOT
HETATM    1 Br   UNK     0      22.312  34.858  -0.974  0.00  0.00    -0.096 Br
HETATM    2  C   UNK     0      21.631  35.814   0.579  0.00  0.00     0.096 C 
ENDROOT
BRANCH   2   3
HETATM    3  C   UNK     0      21.104  34.824   1.590  0.00  0.00     0.096 C 
HETATM    4 Br   UNK     0      20.066  35.764   2.939  0.00  0.00    -0.096 Br
ENDBRANCH   2   3
TORSDOF 1
