REMARK  1 active torsions:
REMARK  status: ('A' for Active; 'I' for Inactive)
REMARK    1  A    between atoms: C_3  and  C_4 
ROOT
HETATM    1 Br   UNK     0      21.239  36.306   0.984  0.00  0.00    -0.096 Br
HETATM    2  C   UNK     0      22.194  35.844  -0.648  0.00  0.00     0.096 C 
ENDROOT
BRANCH   2   3
HETATM    3  C   UNK     0      22.178  34.347  -0.836  0.00  0.00     0.096 C 
HETATM    4 Br   UNK     0      23.698  33.813  -1.923  0.00  0.00    -0.096 Br
ENDBRANCH   2   3
TORSDOF 1
