REMARK  1 active torsions:
REMARK  status: ('A' for Active; 'I' for Inactive)
REMARK    1  A    between atoms: C_3  and  C_4 
ROOT
HETATM    1 Br   UNK     0      21.765  35.241  -0.028  0.00  0.00    -0.096 Br
HETATM    2  C   UNK     0      22.528  34.581  -1.693  0.00  0.00     0.096 C 
ENDROOT
BRANCH   2   3
HETATM    3  C   UNK     0      23.351  33.348  -1.415  0.00  0.00     0.096 C 
HETATM    4 Br   UNK     0      24.096  32.675  -3.081  0.00  0.00    -0.096 Br
ENDBRANCH   2   3
TORSDOF 1
