REMARK  1 active torsions:
REMARK  status: ('A' for Active; 'I' for Inactive)
REMARK    1  A    between atoms: C_3  and  C_4 
ROOT
HETATM    1 Br   UNK     0      20.832  35.358   0.818  0.00  0.00    -0.096 Br
HETATM    2  C   UNK     0      20.229  36.354   2.379  0.00  0.00     0.096 C 
ENDROOT
BRANCH   2   3
HETATM    3  C   UNK     0      19.017  35.678   2.973  0.00  0.00     0.096 C 
HETATM    4 Br   UNK     0      18.472  36.620   4.583  0.00  0.00    -0.096 Br
ENDBRANCH   2   3
TORSDOF 1
