REMARK  1 active torsions:
REMARK  status: ('A' for Active; 'I' for Inactive)
REMARK    1  A    between atoms: C_3  and  C_4 
ROOT
HETATM    1 Br   UNK     0      21.613  35.296  -0.711  0.00  0.00    -0.096 Br
HETATM    2  C   UNK     0      22.581  34.291  -2.068  0.00  0.00     0.096 C 
ENDROOT
BRANCH   2   3
HETATM    3  C   UNK     0      23.488  33.288  -1.400  0.00  0.00     0.096 C 
HETATM    4 Br   UNK     0      24.379  32.214  -2.755  0.00  0.00    -0.096 Br
ENDBRANCH   2   3
TORSDOF 1
