REMARK  1 active torsions:
REMARK  status: ('A' for Active; 'I' for Inactive)
REMARK    1  A    between atoms: C_3  and  C_4 
ROOT
HETATM    1 Br   UNK     0      21.743  35.189   0.313  0.00  0.00    -0.096 Br
HETATM    2  C   UNK     0      21.059  36.056   1.916  0.00  0.00     0.096 C 
ENDROOT
BRANCH   2   3
HETATM    3  C   UNK     0      20.014  35.177   2.560  0.00  0.00     0.096 C 
HETATM    4 Br   UNK     0      19.113  36.165   3.971  0.00  0.00    -0.096 Br
ENDBRANCH   2   3
TORSDOF 1
