REMARK  1 active torsions:
REMARK  status: ('A' for Active; 'I' for Inactive)
REMARK    1  A    between atoms: C_3  and  C_4 
ROOT
HETATM    1 Br   UNK     0      22.024  35.096   0.011  0.00  0.00    -0.096 Br
HETATM    2  C   UNK     0      21.313  35.955   1.606  0.00  0.00     0.096 C 
ENDROOT
BRANCH   2   3
HETATM    3  C   UNK     0      20.498  34.960   2.396  0.00  0.00     0.096 C 
HETATM    4 Br   UNK     0      19.373  35.904   3.670  0.00  0.00    -0.096 Br
ENDBRANCH   2   3
TORSDOF 1
