REMARK  1 active torsions:
REMARK  status: ('A' for Active; 'I' for Inactive)
REMARK    1  A    between atoms: C_3  and  C_4 
ROOT
HETATM    1 Br   UNK     0      22.417  34.878  -0.653  0.00  0.00    -0.096 Br
HETATM    2  C   UNK     0      21.630  35.823   0.855  0.00  0.00     0.096 C 
ENDROOT
BRANCH   2   3
HETATM    3  C   UNK     0      20.955  34.834   1.774  0.00  0.00     0.096 C 
HETATM    4 Br   UNK     0      19.777  35.782   2.996  0.00  0.00    -0.096 Br
ENDBRANCH   2   3
TORSDOF 1
