REMARK  1 active torsions:
REMARK  status: ('A' for Active; 'I' for Inactive)
REMARK    1  A    between atoms: C_3  and  C_4 
ROOT
HETATM    1 Br   UNK     0      21.464  35.651   0.380  0.00  0.00    -0.096 Br
HETATM    2  C   UNK     0      22.543  35.218  -1.180  0.00  0.00     0.096 C 
ENDROOT
BRANCH   2   3
HETATM    3  C   UNK     0      22.825  33.736  -1.202  0.00  0.00     0.096 C 
HETATM    4 Br   UNK     0      24.197  33.354  -2.525  0.00  0.00    -0.096 Br
ENDBRANCH   2   3
TORSDOF 1
