REMARK  1 active torsions:
REMARK  status: ('A' for Active; 'I' for Inactive)
REMARK    1  A    between atoms: C_3  and  C_4 
ROOT
HETATM    1 Br   UNK     0      21.427  35.861   0.519  0.00  0.00    -0.096 Br
HETATM    2  C   UNK     0      22.530  35.452  -1.031  0.00  0.00     0.096 C 
ENDROOT
BRANCH   2   3
HETATM    3  C   UNK     0      22.621  33.956  -1.204  0.00  0.00     0.096 C 
HETATM    4 Br   UNK     0      24.216  33.515  -2.224  0.00  0.00    -0.096 Br
ENDBRANCH   2   3
TORSDOF 1
