REMARK  1 active torsions:
REMARK  status: ('A' for Active; 'I' for Inactive)
REMARK    1  A    between atoms: C_3  and  C_4 
ROOT
HETATM    1 Br   UNK     0      23.497  34.036   0.142  0.00  0.00    -0.096 Br
HETATM    2  C   UNK     0      22.898  34.031  -1.710  0.00  0.00     0.096 C 
ENDROOT
BRANCH   2   3
HETATM    3  C   UNK     0      23.515  32.861  -2.435  0.00  0.00     0.096 C 
HETATM    4 Br   UNK     0      22.992  32.909  -4.308  0.00  0.00    -0.096 Br
ENDBRANCH   2   3
TORSDOF 1
