REMARK  1 active torsions:
REMARK  status: ('A' for Active; 'I' for Inactive)
REMARK    1  A    between atoms: C_3  and  C_4 
ROOT
HETATM    1 Br   UNK     0      22.226  34.991  -0.279  0.00  0.00    -0.096 Br
HETATM    2  C   UNK     0      21.474  35.875   1.283  0.00  0.00     0.096 C 
ENDROOT
BRANCH   2   3
HETATM    3  C   UNK     0      20.722  34.870   2.121  0.00  0.00     0.096 C 
HETATM    4 Br   UNK     0      19.592  35.802   3.398  0.00  0.00    -0.096 Br
ENDBRANCH   2   3
TORSDOF 1
