REMARK  1 active torsions:
REMARK  status: ('A' for Active; 'I' for Inactive)
REMARK    1  A    between atoms: C_3  and  C_4 
ROOT
HETATM    1 Br   UNK     0      22.722  34.669  -1.645  0.00  0.00    -0.096 Br
HETATM    2  C   UNK     0      21.655  35.793  -0.467  0.00  0.00     0.096 C 
ENDROOT
BRANCH   2   3
HETATM    3  C   UNK     0      21.638  35.195   0.920  0.00  0.00     0.096 C 
HETATM    4 Br   UNK     0      20.080  35.843   1.886  0.00  0.00    -0.096 Br
ENDBRANCH   2   3
TORSDOF 1
