REMARK  1 active torsions:
REMARK  status: ('A' for Active; 'I' for Inactive)
REMARK    1  A    between atoms: C_3  and  C_4 
ROOT
HETATM    1 Br   UNK     0      21.564  35.382   0.416  0.00  0.00    -0.096 Br
HETATM    2  C   UNK     0      20.818  36.186   2.024  0.00  0.00     0.096 C 
ENDROOT
BRANCH   2   3
HETATM    3  C   UNK     0      19.731  35.297   2.577  0.00  0.00     0.096 C 
HETATM    4 Br   UNK     0      18.937  36.135   4.141  0.00  0.00    -0.096 Br
ENDBRANCH   2   3
TORSDOF 1
