REMARK  1 active torsions:
REMARK  status: ('A' for Active; 'I' for Inactive)
REMARK    1  A    between atoms: C_3  and  C_4 
ROOT
HETATM    1 Br   UNK     0      23.000  34.368  -1.909  0.00  0.00    -0.096 Br
HETATM    2  C   UNK     0      21.866  35.658  -0.993  0.00  0.00     0.096 C 
ENDROOT
BRANCH   2   3
HETATM    3  C   UNK     0      22.042  35.515   0.499  0.00  0.00     0.096 C 
HETATM    4 Br   UNK     0      20.314  35.670   1.375  0.00  0.00    -0.096 Br
ENDBRANCH   2   3
TORSDOF 1
