REMARK  1 active torsions:
REMARK  status: ('A' for Active; 'I' for Inactive)
REMARK    1  A    between atoms: C_3  and  C_4 
ROOT
HETATM    1 Br   UNK     0      20.481  35.340   0.918  0.00  0.00    -0.096 Br
HETATM    2  C   UNK     0      19.996  36.408   2.472  0.00  0.00     0.096 C 
ENDROOT
BRANCH   2   3
HETATM    3  C   UNK     0      18.795  35.796   3.151  0.00  0.00     0.096 C 
HETATM    4 Br   UNK     0      18.421  36.757   4.798  0.00  0.00    -0.096 Br
ENDBRANCH   2   3
TORSDOF 1
