REMARK  1 active torsions:
REMARK  status: ('A' for Active; 'I' for Inactive)
REMARK    1  A    between atoms: C_3  and  C_4 
ROOT
HETATM    1 Br   UNK     0      22.387  35.004  -0.435  0.00  0.00    -0.096 Br
HETATM    2  C   UNK     0      21.560  35.852   1.109  0.00  0.00     0.096 C 
ENDROOT
BRANCH   2   3
HETATM    3  C   UNK     0      20.820  34.816   1.919  0.00  0.00     0.096 C 
HETATM    4 Br   UNK     0      19.638  35.701   3.183  0.00  0.00    -0.096 Br
ENDBRANCH   2   3
TORSDOF 1
