REMARK  1 active torsions:
REMARK  status: ('A' for Active; 'I' for Inactive)
REMARK    1  A    between atoms: C_3  and  C_4 
ROOT
HETATM    1 Br   UNK     0      21.666  35.307   0.170  0.00  0.00    -0.096 Br
HETATM    2  C   UNK     0      22.559  34.810  -1.486  0.00  0.00     0.096 C 
ENDROOT
BRANCH   2   3
HETATM    3  C   UNK     0      23.172  33.440  -1.336  0.00  0.00     0.096 C 
HETATM    4 Br   UNK     0      24.107  32.963  -2.973  0.00  0.00    -0.096 Br
ENDBRANCH   2   3
TORSDOF 1
