REMARK  1 active torsions:
REMARK  status: ('A' for Active; 'I' for Inactive)
REMARK    1  A    between atoms: C_3  and  C_4 
ROOT
HETATM    1 Br   UNK     0      23.458  33.558  -1.322  0.00  0.00    -0.096 Br
HETATM    2  C   UNK     0      22.701  35.345  -1.168  0.00  0.00     0.096 C 
ENDROOT
BRANCH   2   3
HETATM    3  C   UNK     0      22.238  35.577   0.250  0.00  0.00     0.096 C 
HETATM    4 Br   UNK     0      20.359  36.072   0.246  0.00  0.00    -0.096 Br
ENDBRANCH   2   3
TORSDOF 1
