REMARK  1 active torsions:
REMARK  status: ('A' for Active; 'I' for Inactive)
REMARK    1  A    between atoms: C_3  and  C_4 
ROOT
HETATM    1 Br   UNK     0      21.482  35.096  -1.249  0.00  0.00    -0.096 Br
HETATM    2  C   UNK     0      22.770  34.143  -2.354  0.00  0.00     0.096 C 
ENDROOT
BRANCH   2   3
HETATM    3  C   UNK     0      23.699  33.348  -1.471  0.00  0.00     0.096 C 
HETATM    4 Br   UNK     0      24.526  31.927  -2.511  0.00  0.00    -0.096 Br
ENDBRANCH   2   3
TORSDOF 1
