REMARK  1 active torsions:
REMARK  status: ('A' for Active; 'I' for Inactive)
REMARK    1  A    between atoms: C_3  and  C_4 
ROOT
HETATM    1 Br   UNK     0      21.563  35.373   0.617  0.00  0.00    -0.096 Br
HETATM    2  C   UNK     0      20.729  36.219   2.159  0.00  0.00     0.096 C 
ENDROOT
BRANCH   2   3
HETATM    3  C   UNK     0      19.552  35.391   2.615  0.00  0.00     0.096 C 
HETATM    4 Br   UNK     0      18.655  36.290   4.086  0.00  0.00    -0.096 Br
ENDBRANCH   2   3
TORSDOF 1
