REMARK  1 active torsions:
REMARK  status: ('A' for Active; 'I' for Inactive)
REMARK    1  A    between atoms: C_3  and  C_4 
ROOT
HETATM    1 Br   UNK     0      21.337  36.199   0.869  0.00  0.00    -0.096 Br
HETATM    2  C   UNK     0      22.332  35.753  -0.743  0.00  0.00     0.096 C 
ENDROOT
BRANCH   2   3
HETATM    3  C   UNK     0      22.324  34.258  -0.944  0.00  0.00     0.096 C 
HETATM    4 Br   UNK     0      23.850  33.740  -2.030  0.00  0.00    -0.096 Br
ENDBRANCH   2   3
TORSDOF 1
