REMARK  1 active torsions:
REMARK  status: ('A' for Active; 'I' for Inactive)
REMARK    1  A    between atoms: C_3  and  C_4 
ROOT
HETATM    1 Br   UNK     0      22.351  34.697  -1.154  0.00  0.00    -0.096 Br
HETATM    2  C   UNK     0      21.570  35.738   0.293  0.00  0.00     0.096 C 
ENDROOT
BRANCH   2   3
HETATM    3  C   UNK     0      21.136  34.812   1.404  0.00  0.00     0.096 C 
HETATM    4 Br   UNK     0      20.166  35.824   2.751  0.00  0.00    -0.096 Br
ENDBRANCH   2   3
TORSDOF 1
