REMARK  1 active torsions:
REMARK  status: ('A' for Active; 'I' for Inactive)
REMARK    1  A    between atoms: C_3  and  C_4 
ROOT
HETATM    1 Br   UNK     0      22.053  35.315   0.284  0.00  0.00    -0.096 Br
HETATM    2  C   UNK     0      21.198  36.035   1.878  0.00  0.00     0.096 C 
ENDROOT
BRANCH   2   3
HETATM    3  C   UNK     0      20.199  35.037   2.411  0.00  0.00     0.096 C 
HETATM    4 Br   UNK     0      19.048  35.902   3.717  0.00  0.00    -0.096 Br
ENDBRANCH   2   3
TORSDOF 1
