REMARK  1 active torsions:
REMARK  status: ('A' for Active; 'I' for Inactive)
REMARK    1  A    between atoms: C_3  and  C_4 
ROOT
HETATM    1 Br   UNK     0      22.916  34.601  -1.774  0.00  0.00    -0.096 Br
HETATM    2  C   UNK     0      21.797  35.780  -0.702  0.00  0.00     0.096 C 
ENDROOT
BRANCH   2   3
HETATM    3  C   UNK     0      21.768  35.287   0.725  0.00  0.00     0.096 C 
HETATM    4 Br   UNK     0      20.082  35.791   1.551  0.00  0.00    -0.096 Br
ENDBRANCH   2   3
TORSDOF 1
