REMARK  1 active torsions:
REMARK  status: ('A' for Active; 'I' for Inactive)
REMARK    1  A    between atoms: C_3  and  C_4 
ROOT
HETATM    1 Br   UNK     0      21.420  36.011   0.676  0.00  0.00    -0.096 Br
HETATM    2  C   UNK     0      22.469  35.571  -0.903  0.00  0.00     0.096 C 
ENDROOT
BRANCH   2   3
HETATM    3  C   UNK     0      22.499  34.074  -1.087  0.00  0.00     0.096 C 
HETATM    4 Br   UNK     0      24.064  33.578  -2.127  0.00  0.00    -0.096 Br
ENDBRANCH   2   3
TORSDOF 1
