REMARK  1 active torsions:
REMARK  status: ('A' for Active; 'I' for Inactive)
REMARK    1  A    between atoms: C_3  and  C_4 
ROOT
HETATM    1 Br   UNK     0      22.086  35.033  -0.103  0.00  0.00    -0.096 Br
HETATM    2  C   UNK     0      21.361  35.920   1.470  0.00  0.00     0.096 C 
ENDROOT
BRANCH   2   3
HETATM    3  C   UNK     0      20.617  34.918   2.319  0.00  0.00     0.096 C 
HETATM    4 Br   UNK     0      19.485  35.854   3.591  0.00  0.00    -0.096 Br
ENDBRANCH   2   3
TORSDOF 1
