REMARK  1 active torsions:
REMARK  status: ('A' for Active; 'I' for Inactive)
REMARK    1  A    between atoms: C_3  and  C_4 
ROOT
HETATM    1 Br   UNK     0      26.323  33.069  -2.727  0.00  0.00    -0.096 Br
HETATM    2  C   UNK     0      25.724  33.064  -4.579  0.00  0.00     0.096 C 
ENDROOT
BRANCH   2   3
HETATM    3  C   UNK     0      26.341  31.894  -5.304  0.00  0.00     0.096 C 
HETATM    4 Br   UNK     0      25.818  31.942  -7.177  0.00  0.00    -0.096 Br
ENDBRANCH   2   3
TORSDOF 1
