MODEL 1
REMARK VINA RESULT:    -3.074      0.000      0.000
REMARK INTER + INTRA:          -3.253
REMARK INTER:                  -3.253
REMARK INTRA:                   0.000
REMARK UNBOUND:                 0.000
REMARK  1 active torsions:
REMARK  status: ('A' for Active; 'I' for Inactive)
REMARK    1  A    between atoms: C_3  and  C_4 
ROOT
HETATM    1 Br   UNK     0      17.873  36.783   2.646  0.00  0.00    -0.096 Br
HETATM    2  C   UNK     0      19.243  35.660   3.451  0.00  0.00     0.096 C 
ENDROOT
BRANCH   2   3
HETATM    3  C   UNK     0      20.119  35.081   2.368  0.00  0.00     0.096 C 
HETATM    4 Br   UNK     0      21.241  36.485   1.623  0.00  0.00    -0.096 Br
ENDBRANCH   2   3
TORSDOF 1
ENDMDL
