MODEL 1
REMARK VINA RESULT:    -3.357      0.000      0.000
REMARK INTER + INTRA:          -3.554
REMARK INTER:                  -3.554
REMARK INTRA:                   0.000
REMARK UNBOUND:                 0.000
REMARK  1 active torsions:
REMARK  status: ('A' for Active; 'I' for Inactive)
REMARK    1  A    between atoms: C_3  and  C_4 
ROOT
HETATM    1 Br   UNK     0      20.917  36.465   1.868  0.00  0.00    -0.096 Br
HETATM    2  C   UNK     0      19.602  35.446   2.878  0.00  0.00     0.096 C 
ENDROOT
BRANCH   2   3
HETATM    3  C   UNK     0      18.639  36.393   3.549  0.00  0.00     0.096 C 
HETATM    4 Br   UNK     0      19.411  37.030   5.218  0.00  0.00    -0.096 Br
ENDBRANCH   2   3
TORSDOF 1
ENDMDL
