MODEL 1
REMARK VINA RESULT:     1.294      0.000      0.000
REMARK INTER + INTRA:           1.370
REMARK INTER:                   1.370
REMARK INTRA:                   0.000
REMARK UNBOUND:                 0.000
REMARK  1 active torsions:
REMARK  status: ('A' for Active; 'I' for Inactive)
REMARK    1  A    between atoms: C_3  and  C_4 
ROOT
HETATM    1 Br   UNK     0      17.953  36.957   2.205  0.00  0.00    -0.096 Br
HETATM    2  C   UNK     0      19.079  35.834   3.327  0.00  0.00     0.096 C 
ENDROOT
BRANCH   2   3
HETATM    3  C   UNK     0      20.153  35.196   2.482  0.00  0.00     0.096 C 
HETATM    4 Br   UNK     0      21.289  36.582   1.721  0.00  0.00    -0.096 Br
ENDBRANCH   2   3
TORSDOF 1
ENDMDL
