MODEL 1
REMARK VINA RESULT:    -3.147      0.000      0.000
REMARK INTER + INTRA:          -3.331
REMARK INTER:                  -3.331
REMARK INTRA:                   0.000
REMARK UNBOUND:                 0.000
REMARK  1 active torsions:
REMARK  status: ('A' for Active; 'I' for Inactive)
REMARK    1  A    between atoms: C_3  and  C_4 
ROOT
HETATM    1 Br   UNK     0      17.814  36.942   2.535  0.00  0.00    -0.096 Br
HETATM    2  C   UNK     0      19.084  35.830   3.503  0.00  0.00     0.096 C 
ENDROOT
BRANCH   2   3
HETATM    3  C   UNK     0      20.041  35.192   2.527  0.00  0.00     0.096 C 
HETATM    4 Br   UNK     0      21.188  36.562   1.755  0.00  0.00    -0.096 Br
ENDBRANCH   2   3
TORSDOF 1
ENDMDL
