MODEL 1
REMARK VINA RESULT:    -3.315      0.000      0.000
REMARK INTER + INTRA:          -3.509
REMARK INTER:                  -3.509
REMARK INTRA:                   0.000
REMARK UNBOUND:                 0.000
REMARK  1 active torsions:
REMARK  status: ('A' for Active; 'I' for Inactive)
REMARK    1  A    between atoms: C_3  and  C_4 
ROOT
HETATM    1 Br   UNK     0      19.860  37.170   5.107  0.00  0.00    -0.096 Br
HETATM    2  C   UNK     0      18.776  35.989   4.003  0.00  0.00     0.096 C 
ENDROOT
BRANCH   2   3
HETATM    3  C   UNK     0      19.009  36.308   2.548  0.00  0.00     0.096 C 
HETATM    4 Br   UNK     0      20.916  36.248   2.167  0.00  0.00    -0.096 Br
ENDBRANCH   2   3
TORSDOF 1
ENDMDL
