MODEL 1
REMARK VINA RESULT:    -3.322      0.000      0.000
REMARK INTER + INTRA:          -3.516
REMARK INTER:                  -3.516
REMARK INTRA:                   0.000
REMARK UNBOUND:                 0.000
REMARK  1 active torsions:
REMARK  status: ('A' for Active; 'I' for Inactive)
REMARK    1  A    between atoms: C_3  and  C_4 
ROOT
HETATM    1 Br   UNK     0      19.862  37.163   5.095  0.00  0.00    -0.096 Br
HETATM    2  C   UNK     0      18.750  36.021   3.977  0.00  0.00     0.096 C 
ENDROOT
BRANCH   2   3
HETATM    3  C   UNK     0      18.994  36.349   2.525  0.00  0.00     0.096 C 
HETATM    4 Br   UNK     0      20.896  36.212   2.139  0.00  0.00    -0.096 Br
ENDBRANCH   2   3
TORSDOF 1
ENDMDL
