MODEL 1
REMARK VINA RESULT:    -3.338      0.000      0.000
REMARK INTER + INTRA:          -3.534
REMARK INTER:                  -3.534
REMARK INTRA:                   0.000
REMARK UNBOUND:                 0.000
REMARK  1 active torsions:
REMARK  status: ('A' for Active; 'I' for Inactive)
REMARK    1  A    between atoms: C_3  and  C_4 
ROOT
HETATM    1 Br   UNK     0      19.417  37.061   5.337  0.00  0.00    -0.096 Br
HETATM    2  C   UNK     0      18.659  36.516   3.630  0.00  0.00     0.096 C 
ENDROOT
BRANCH   2   3
HETATM    3  C   UNK     0      19.587  35.537   2.958  0.00  0.00     0.096 C 
HETATM    4 Br   UNK     0      20.885  36.507   1.880  0.00  0.00    -0.096 Br
ENDBRANCH   2   3
TORSDOF 1
ENDMDL
