MODEL 1
REMARK VINA RESULT:    -3.168      0.000      0.000
REMARK INTER + INTRA:          -3.353
REMARK INTER:                  -3.353
REMARK INTRA:                   0.000
REMARK UNBOUND:                 0.000
REMARK  1 active torsions:
REMARK  status: ('A' for Active; 'I' for Inactive)
REMARK    1  A    between atoms: C_3  and  C_4 
ROOT
HETATM    1 Br   UNK     0      21.134  36.468   1.568  0.00  0.00    -0.096 Br
HETATM    2  C   UNK     0      20.012  35.235   2.572  0.00  0.00     0.096 C 
ENDROOT
BRANCH   2   3
HETATM    3  C   UNK     0      19.056  36.017   3.438  0.00  0.00     0.096 C 
HETATM    4 Br   UNK     0      17.762  36.934   2.310  0.00  0.00    -0.096 Br
ENDBRANCH   2   3
TORSDOF 1
ENDMDL
