MODEL 1
REMARK VINA RESULT:    -3.199      0.000      0.000
REMARK INTER + INTRA:          -3.386
REMARK INTER:                  -3.386
REMARK INTRA:                   0.000
REMARK UNBOUND:                 0.000
REMARK  1 active torsions:
REMARK  status: ('A' for Active; 'I' for Inactive)
REMARK    1  A    between atoms: C_3  and  C_4 
ROOT
HETATM    1 Br   UNK     0      17.551  36.898   2.348  0.00  0.00    -0.096 Br
HETATM    2  C   UNK     0      18.674  36.345   3.838  0.00  0.00     0.096 C 
ENDROOT
BRANCH   2   3
HETATM    3  C   UNK     0      20.125  36.490   3.454  0.00  0.00     0.096 C 
HETATM    4 Br   UNK     0      20.541  35.256   2.008  0.00  0.00    -0.096 Br
ENDBRANCH   2   3
TORSDOF 1
ENDMDL
