MODEL 1
REMARK VINA RESULT:    -3.353      0.000      0.000
REMARK INTER + INTRA:          -3.549
REMARK INTER:                  -3.549
REMARK INTRA:                   0.000
REMARK UNBOUND:                 0.000
REMARK  1 active torsions:
REMARK  status: ('A' for Active; 'I' for Inactive)
REMARK    1  A    between atoms: C_3  and  C_4 
ROOT
HETATM    1 Br   UNK     0      19.662  37.079   5.207  0.00  0.00    -0.096 Br
HETATM    2  C   UNK     0      18.670  36.372   3.690  0.00  0.00     0.096 C 
ENDROOT
BRANCH   2   3
HETATM    3  C   UNK     0      19.565  35.467   2.881  0.00  0.00     0.096 C 
HETATM    4 Br   UNK     0      20.841  36.541   1.881  0.00  0.00    -0.096 Br
ENDBRANCH   2   3
TORSDOF 1
ENDMDL
