MODEL 1
REMARK VINA RESULT:    -3.213      0.000      0.000
REMARK INTER + INTRA:          -3.400
REMARK INTER:                  -3.400
REMARK INTRA:                   0.000
REMARK UNBOUND:                 0.000
REMARK  1 active torsions:
REMARK  status: ('A' for Active; 'I' for Inactive)
REMARK    1  A    between atoms: C_3  and  C_4 
ROOT
HETATM    1 Br   UNK     0      17.398  37.049   2.099  0.00  0.00    -0.096 Br
HETATM    2  C   UNK     0      17.689  37.049   4.023  0.00  0.00     0.096 C 
ENDROOT
BRANCH   2   3
HETATM    3  C   UNK     0      18.964  36.307   4.338  0.00  0.00     0.096 C 
HETATM    4 Br   UNK     0      19.928  35.943   2.687  0.00  0.00    -0.096 Br
ENDBRANCH   2   3
TORSDOF 1
ENDMDL
