MODEL 1
REMARK VINA RESULT:    -2.688      0.000      0.000
REMARK INTER + INTRA:          -2.845
REMARK INTER:                  -2.845
REMARK INTRA:                   0.000
REMARK UNBOUND:                 0.000
REMARK  1 active torsions:
REMARK  status: ('A' for Active; 'I' for Inactive)
REMARK    1  A    between atoms: C_3  and  C_4 
ROOT
HETATM    1 Br   UNK     0      21.187  36.461   1.305  0.00  0.00    -0.096 Br
HETATM    2  C   UNK     0      20.302  35.074   2.345  0.00  0.00     0.096 C 
ENDROOT
BRANCH   2   3
HETATM    3  C   UNK     0      19.197  35.690   3.166  0.00  0.00     0.096 C 
HETATM    4 Br   UNK     0      18.094  36.818   2.027  0.00  0.00    -0.096 Br
ENDBRANCH   2   3
TORSDOF 1
ENDMDL
