MODEL 1
REMARK VINA RESULT:    -2.342      0.000      0.000
REMARK INTER + INTRA:          -2.478
REMARK INTER:                  -2.478
REMARK INTRA:                   0.000
REMARK UNBOUND:                 0.000
REMARK  1 active torsions:
REMARK  status: ('A' for Active; 'I' for Inactive)
REMARK    1  A    between atoms: C_3  and  C_4 
ROOT
HETATM    1 Br   UNK     0      17.873  36.979   2.575  0.00  0.00    -0.096 Br
HETATM    2  C   UNK     0      19.345  36.030   3.423  0.00  0.00     0.096 C 
ENDROOT
BRANCH   2   3
HETATM    3  C   UNK     0      20.108  35.252   2.380  0.00  0.00     0.096 C 
HETATM    4 Br   UNK     0      21.374  36.431   1.489  0.00  0.00    -0.096 Br
ENDBRANCH   2   3
TORSDOF 1
ENDMDL
