MODEL 1
REMARK VINA RESULT:    -2.812      0.000      0.000
REMARK INTER + INTRA:          -2.977
REMARK INTER:                  -2.977
REMARK INTRA:                   0.000
REMARK UNBOUND:                 0.000
REMARK  1 active torsions:
REMARK  status: ('A' for Active; 'I' for Inactive)
REMARK    1  A    between atoms: C_3  and  C_4 
ROOT
HETATM    1 Br   UNK     0      17.384  36.922   2.235  0.00  0.00    -0.096 Br
HETATM    2  C   UNK     0      17.799  36.895   4.136  0.00  0.00     0.096 C 
ENDROOT
BRANCH   2   3
HETATM    3  C   UNK     0      19.274  36.642   4.325  0.00  0.00     0.096 C 
HETATM    4 Br   UNK     0      20.050  36.046   2.643  0.00  0.00    -0.096 Br
ENDBRANCH   2   3
TORSDOF 1
ENDMDL
