MODEL 1
REMARK VINA RESULT:    -1.802      0.000      0.000
REMARK INTER + INTRA:          -1.908
REMARK INTER:                  -1.908
REMARK INTRA:                   0.000
REMARK UNBOUND:                 0.000
REMARK  1 active torsions:
REMARK  status: ('A' for Active; 'I' for Inactive)
REMARK    1  A    between atoms: C_3  and  C_4 
ROOT
HETATM    1 Br   UNK     0      26.685  33.798  -3.103  0.00  0.00    -0.096 Br
HETATM    2  C   UNK     0      25.480  32.359  -2.588  0.00  0.00     0.096 C 
ENDROOT
BRANCH   2   3
HETATM    3  C   UNK     0      24.054  32.847  -2.661  0.00  0.00     0.096 C 
HETATM    4 Br   UNK     0      23.134  31.946  -4.119  0.00  0.00    -0.096 Br
ENDBRANCH   2   3
TORSDOF 1
ENDMDL
