MODEL 1
REMARK VINA RESULT:    -2.826      0.000      0.000
REMARK INTER + INTRA:          -2.991
REMARK INTER:                  -2.991
REMARK INTRA:                   0.000
REMARK UNBOUND:                 0.000
REMARK  1 active torsions:
REMARK  status: ('A' for Active; 'I' for Inactive)
REMARK    1  A    between atoms: C_3  and  C_4 
ROOT
HETATM    1 Br   UNK     0      19.267  37.005   5.187  0.00  0.00    -0.096 Br
HETATM    2  C   UNK     0      17.692  36.904   4.048  0.00  0.00     0.096 C 
ENDROOT
BRANCH   2   3
HETATM    3  C   UNK     0      18.119  36.677   2.620  0.00  0.00     0.096 C 
HETATM    4 Br   UNK     0      19.861  35.809   2.594  0.00  0.00    -0.096 Br
ENDBRANCH   2   3
TORSDOF 1
ENDMDL
