MODEL 1
REMARK VINA RESULT:    -2.371      0.000      0.000
REMARK INTER + INTRA:          -2.510
REMARK INTER:                  -2.510
REMARK INTRA:                   0.000
REMARK UNBOUND:                 0.000
REMARK  1 active torsions:
REMARK  status: ('A' for Active; 'I' for Inactive)
REMARK    1  A    between atoms: C_3  and  C_4 
ROOT
HETATM    1 Br   UNK     0      21.165  36.593   1.403  0.00  0.00    -0.096 Br
HETATM    2  C   UNK     0      20.170  35.349   2.521  0.00  0.00     0.096 C 
ENDROOT
BRANCH   2   3
HETATM    3  C   UNK     0      19.326  36.121   3.504  0.00  0.00     0.096 C 
HETATM    4 Br   UNK     0      17.814  36.919   2.575  0.00  0.00    -0.096 Br
ENDBRANCH   2   3
TORSDOF 1
ENDMDL
