MODEL 1
REMARK VINA RESULT:    -2.831      0.000      0.000
REMARK INTER + INTRA:          -2.997
REMARK INTER:                  -2.997
REMARK INTRA:                   0.000
REMARK UNBOUND:                 0.000
REMARK  1 active torsions:
REMARK  status: ('A' for Active; 'I' for Inactive)
REMARK    1  A    between atoms: C_3  and  C_4 
ROOT
HETATM    1 Br   UNK     0      19.284  37.015   5.226  0.00  0.00    -0.096 Br
HETATM    2  C   UNK     0      17.721  36.953   4.068  0.00  0.00     0.096 C 
ENDROOT
BRANCH   2   3
HETATM    3  C   UNK     0      18.148  36.609   2.664  0.00  0.00     0.096 C 
HETATM    4 Br   UNK     0      20.031  36.115   2.662  0.00  0.00    -0.096 Br
ENDBRANCH   2   3
TORSDOF 1
ENDMDL
