MODEL 1
REMARK VINA RESULT:    -2.864      0.000      0.000
REMARK INTER + INTRA:          -3.032
REMARK INTER:                  -3.032
REMARK INTRA:                   0.000
REMARK UNBOUND:                 0.000
REMARK  1 active torsions:
REMARK  status: ('A' for Active; 'I' for Inactive)
REMARK    1  A    between atoms: C_3  and  C_4 
ROOT
HETATM    1 Br   UNK     0      21.076  36.461   1.851  0.00  0.00    -0.096 Br
HETATM    2  C   UNK     0      19.596  35.636   2.807  0.00  0.00     0.096 C 
ENDROOT
BRANCH   2   3
HETATM    3  C   UNK     0      19.222  36.493   3.991  0.00  0.00     0.096 C 
HETATM    4 Br   UNK     0      17.350  37.007   3.854  0.00  0.00    -0.096 Br
ENDBRANCH   2   3
TORSDOF 1
ENDMDL
