MODEL 1
REMARK VINA RESULT:    -1.832      0.000      0.000
REMARK INTER + INTRA:          -1.939
REMARK INTER:                  -1.939
REMARK INTRA:                   0.000
REMARK UNBOUND:                 0.000
REMARK  1 active torsions:
REMARK  status: ('A' for Active; 'I' for Inactive)
REMARK    1  A    between atoms: C_3  and  C_4 
ROOT
HETATM    1 Br   UNK     0      24.115  32.809  -2.659  0.00  0.00    -0.096 Br
HETATM    2  C   UNK     0      25.773  32.872  -3.676  0.00  0.00     0.096 C 
ENDROOT
BRANCH   2   3
HETATM    3  C   UNK     0      26.730  33.835  -3.018  0.00  0.00     0.096 C 
HETATM    4 Br   UNK     0      28.236  34.166  -4.205  0.00  0.00    -0.096 Br
ENDBRANCH   2   3
TORSDOF 1
ENDMDL
