MODEL 1
REMARK VINA RESULT:    -2.799      0.000      0.000
REMARK INTER + INTRA:          -2.962
REMARK INTER:                  -2.962
REMARK INTRA:                   0.000
REMARK UNBOUND:                 0.000
REMARK  1 active torsions:
REMARK  status: ('A' for Active; 'I' for Inactive)
REMARK    1  A    between atoms: C_3  and  C_4 
ROOT
HETATM    1 Br   UNK     0      19.712  37.144   5.173  0.00  0.00    -0.096 Br
HETATM    2  C   UNK     0      18.211  36.519   4.105  0.00  0.00     0.096 C 
ENDROOT
BRANCH   2   3
HETATM    3  C   UNK     0      18.609  36.484   2.650  0.00  0.00     0.096 C 
HETATM    4 Br   UNK     0      20.529  36.203   2.511  0.00  0.00    -0.096 Br
ENDBRANCH   2   3
TORSDOF 1
ENDMDL
