MODEL 1
REMARK VINA RESULT:    69.014      0.000      0.000
REMARK INTER + INTRA:          73.049
REMARK INTER:                  73.049
REMARK INTRA:                   0.000
REMARK UNBOUND:                 0.000
REMARK  1 active torsions:
REMARK  status: ('A' for Active; 'I' for Inactive)
REMARK    1  A    between atoms: C_3  and  C_4 
ROOT
HETATM    1 Br   UNK     0      24.899  36.801   2.313  0.00  0.00    -0.096 Br
HETATM    2  C   UNK     0      24.589  35.072   1.475  0.00  0.00     0.096 C 
ENDROOT
BRANCH   2   3
HETATM    3  C   UNK     0      25.295  33.998   2.263  0.00  0.00     0.096 C 
HETATM    4 Br   UNK     0      24.538  33.904   4.053  0.00  0.00    -0.096 Br
ENDBRANCH   2   3
TORSDOF 1
ENDMDL
