MODEL 1
REMARK VINA RESULT:    -2.832      0.000      0.000
REMARK INTER + INTRA:          -2.998
REMARK INTER:                  -2.998
REMARK INTRA:                   0.000
REMARK UNBOUND:                 0.000
REMARK  1 active torsions:
REMARK  status: ('A' for Active; 'I' for Inactive)
REMARK    1  A    between atoms: C_3  and  C_4 
ROOT
HETATM    1 Br   UNK     0      19.262  37.037   5.204  0.00  0.00    -0.096 Br
HETATM    2  C   UNK     0      17.698  36.949   4.050  0.00  0.00     0.096 C 
ENDROOT
BRANCH   2   3
HETATM    3  C   UNK     0      18.128  36.607   2.646  0.00  0.00     0.096 C 
HETATM    4 Br   UNK     0      20.007  36.099   2.648  0.00  0.00    -0.096 Br
ENDBRANCH   2   3
TORSDOF 1
ENDMDL
