MODEL 1
REMARK VINA RESULT:     3.725      0.000      0.000
REMARK INTER + INTRA:           3.943
REMARK INTER:                   3.943
REMARK INTRA:                   0.000
REMARK UNBOUND:                 0.000
REMARK  1 active torsions:
REMARK  status: ('A' for Active; 'I' for Inactive)
REMARK    1  A    between atoms: C_3  and  C_4 
ROOT
HETATM    1 Br   UNK     0      17.696  36.921   2.133  0.00  0.00    -0.096 Br
HETATM    2  C   UNK     0      18.350  36.563   3.930  0.00  0.00     0.096 C 
ENDROOT
BRANCH   2   3
HETATM    3  C   UNK     0      19.858  36.555   3.924  0.00  0.00     0.096 C 
HETATM    4 Br   UNK     0      20.496  36.074   2.150  0.00  0.00    -0.096 Br
ENDBRANCH   2   3
TORSDOF 1
ENDMDL
