MODEL 1
REMARK VINA RESULT:    -2.812      0.000      0.000
REMARK INTER + INTRA:          -2.977
REMARK INTER:                  -2.977
REMARK INTRA:                   0.000
REMARK UNBOUND:                 0.000
REMARK  1 active torsions:
REMARK  status: ('A' for Active; 'I' for Inactive)
REMARK    1  A    between atoms: C_3  and  C_4 
ROOT
HETATM    1 Br   UNK     0      17.552  37.039   3.986  0.00  0.00    -0.096 Br
HETATM    2  C   UNK     0      19.420  36.497   3.944  0.00  0.00     0.096 C 
ENDROOT
BRANCH   2   3
HETATM    3  C   UNK     0      19.667  35.639   2.728  0.00  0.00     0.096 C 
HETATM    4 Br   UNK     0      21.163  36.364   1.716  0.00  0.00    -0.096 Br
ENDBRANCH   2   3
TORSDOF 1
ENDMDL
