MODEL 1
REMARK VINA RESULT:    -1.309      0.000      0.000
REMARK INTER + INTRA:          -1.386
REMARK INTER:                  -1.386
REMARK INTRA:                   0.000
REMARK UNBOUND:                 0.000
REMARK  1 active torsions:
REMARK  status: ('A' for Active; 'I' for Inactive)
REMARK    1  A    between atoms: C_3  and  C_4 
ROOT
HETATM    1 Br   UNK     0      21.379  36.380   1.359  0.00  0.00    -0.096 Br
HETATM    2  C   UNK     0      20.187  35.145   2.277  0.00  0.00     0.096 C 
ENDROOT
BRANCH   2   3
HETATM    3  C   UNK     0      19.394  35.894   3.319  0.00  0.00     0.096 C 
HETATM    4 Br   UNK     0      17.953  36.876   2.454  0.00  0.00    -0.096 Br
ENDBRANCH   2   3
TORSDOF 1
ENDMDL
