MODEL 1
REMARK VINA RESULT:    -2.168      0.000      0.000
REMARK INTER + INTRA:          -2.294
REMARK INTER:                  -2.294
REMARK INTRA:                   0.000
REMARK UNBOUND:                 0.000
REMARK  1 active torsions:
REMARK  status: ('A' for Active; 'I' for Inactive)
REMARK    1  A    between atoms: C_3  and  C_4 
ROOT
HETATM    1 Br   UNK     0      18.633  36.747   2.427  0.00  0.00    -0.096 Br
HETATM    2  C   UNK     0      19.747  35.253   2.988  0.00  0.00     0.096 C 
ENDROOT
BRANCH   2   3
HETATM    3  C   UNK     0      20.802  34.993   1.943  0.00  0.00     0.096 C 
HETATM    4 Br   UNK     0      21.463  36.688   1.253  0.00  0.00    -0.096 Br
ENDBRANCH   2   3
TORSDOF 1
ENDMDL
