MODEL 1
REMARK VINA RESULT:    -3.287      0.000      0.000
REMARK INTER + INTRA:          -3.479
REMARK INTER:                  -3.479
REMARK INTRA:                   0.000
REMARK UNBOUND:                 0.000
REMARK  1 active torsions:
REMARK  status: ('A' for Active; 'I' for Inactive)
REMARK    1  A    between atoms: C_3  and  C_4 
ROOT
HETATM    1 Br   UNK     0      17.481  36.930   2.433  0.00  0.00    -0.096 Br
HETATM    2  C   UNK     0      18.899  36.125   3.494  0.00  0.00     0.096 C 
ENDROOT
BRANCH   2   3
HETATM    3  C   UNK     0      19.836  35.367   2.588  0.00  0.00     0.096 C 
HETATM    4 Br   UNK     0      21.082  36.609   1.758  0.00  0.00    -0.096 Br
ENDBRANCH   2   3
TORSDOF 1
ENDMDL
