MODEL 1
REMARK VINA RESULT:    -3.249      0.000      0.000
REMARK INTER + INTRA:          -3.439
REMARK INTER:                  -3.439
REMARK INTRA:                   0.000
REMARK UNBOUND:                 0.000
REMARK  1 active torsions:
REMARK  status: ('A' for Active; 'I' for Inactive)
REMARK    1  A    between atoms: C_3  and  C_4 
ROOT
HETATM    1 Br   UNK     0      17.515  36.869   2.460  0.00  0.00    -0.096 Br
HETATM    2  C   UNK     0      18.980  36.111   3.494  0.00  0.00     0.096 C 
ENDROOT
BRANCH   2   3
HETATM    3  C   UNK     0      19.880  35.316   2.582  0.00  0.00     0.096 C 
HETATM    4 Br   UNK     0      21.233  36.489   1.821  0.00  0.00    -0.096 Br
ENDBRANCH   2   3
TORSDOF 1
ENDMDL
