MODEL 1
REMARK VINA RESULT:    -3.353      0.000      0.000
REMARK INTER + INTRA:          -3.549
REMARK INTER:                  -3.549
REMARK INTRA:                   0.000
REMARK UNBOUND:                 0.000
REMARK  1 active torsions:
REMARK  status: ('A' for Active; 'I' for Inactive)
REMARK    1  A    between atoms: C_3  and  C_4 
ROOT
HETATM    1 Br   UNK     0      19.659  37.025   5.020  0.00  0.00    -0.096 Br
HETATM    2  C   UNK     0      18.735  36.267   3.484  0.00  0.00     0.096 C 
ENDROOT
BRANCH   2   3
HETATM    3  C   UNK     0      19.685  35.390   2.709  0.00  0.00     0.096 C 
HETATM    4 Br   UNK     0      21.007  36.500   1.811  0.00  0.00    -0.096 Br
ENDBRANCH   2   3
TORSDOF 1
ENDMDL
