MODEL 1
REMARK VINA RESULT:    -2.012      0.000      0.000
REMARK INTER + INTRA:          -2.130
REMARK INTER:                  -2.130
REMARK INTRA:                   0.000
REMARK UNBOUND:                 0.000
REMARK  1 active torsions:
REMARK  status: ('A' for Active; 'I' for Inactive)
REMARK    1  A    between atoms: C_3  and  C_4 
ROOT
HETATM    1 Br   UNK     0      24.157  32.863  -2.674  0.00  0.00    -0.096 Br
HETATM    2  C   UNK     0      25.900  33.633  -3.069  0.00  0.00     0.096 C 
ENDROOT
BRANCH   2   3
HETATM    3  C   UNK     0      26.964  32.882  -2.309  0.00  0.00     0.096 C 
HETATM    4 Br   UNK     0      26.126  31.557  -1.157  0.00  0.00    -0.096 Br
ENDBRANCH   2   3
TORSDOF 1
ENDMDL
