MODEL 1
REMARK VINA RESULT:    -3.056      0.000      0.000
REMARK INTER + INTRA:          -3.235
REMARK INTER:                  -3.235
REMARK INTRA:                   0.000
REMARK UNBOUND:                 0.000
REMARK  1 active torsions:
REMARK  status: ('A' for Active; 'I' for Inactive)
REMARK    1  A    between atoms: C_3  and  C_4 
ROOT
HETATM    1 Br   UNK     0      17.850  37.075   2.306  0.00  0.00    -0.096 Br
HETATM    2  C   UNK     0      18.978  35.970   3.444  0.00  0.00     0.096 C 
ENDROOT
BRANCH   2   3
HETATM    3  C   UNK     0      19.978  35.229   2.593  0.00  0.00     0.096 C 
HETATM    4 Br   UNK     0      21.220  36.498   1.798  0.00  0.00    -0.096 Br
ENDBRANCH   2   3
TORSDOF 1
ENDMDL
