MODEL 1
REMARK VINA RESULT:    -2.007      0.000      0.000
REMARK INTER + INTRA:          -2.124
REMARK INTER:                  -2.124
REMARK INTRA:                   0.000
REMARK UNBOUND:                 0.000
REMARK  1 active torsions:
REMARK  status: ('A' for Active; 'I' for Inactive)
REMARK    1  A    between atoms: C_3  and  C_4 
ROOT
HETATM    1 Br   UNK     0      24.071  32.878  -2.581  0.00  0.00    -0.096 Br
HETATM    2  C   UNK     0      25.837  33.416  -3.198  0.00  0.00     0.096 C 
ENDROOT
BRANCH   2   3
HETATM    3  C   UNK     0      26.886  32.852  -2.273  0.00  0.00     0.096 C 
HETATM    4 Br   UNK     0      26.092  31.466  -1.161  0.00  0.00    -0.096 Br
ENDBRANCH   2   3
TORSDOF 1
ENDMDL
