MODEL 1
REMARK VINA RESULT:    -2.013      0.000      0.000
REMARK INTER + INTRA:          -2.131
REMARK INTER:                  -2.131
REMARK INTRA:                   0.000
REMARK UNBOUND:                 0.000
REMARK  1 active torsions:
REMARK  status: ('A' for Active; 'I' for Inactive)
REMARK    1  A    between atoms: C_3  and  C_4 
ROOT
HETATM    1 Br   UNK     0      26.081  31.539  -1.160  0.00  0.00    -0.096 Br
HETATM    2  C   UNK     0      26.933  32.842  -2.326  0.00  0.00     0.096 C 
ENDROOT
BRANCH   2   3
HETATM    3  C   UNK     0      25.878  33.582  -3.110  0.00  0.00     0.096 C 
HETATM    4 Br   UNK     0      24.120  32.893  -2.640  0.00  0.00    -0.096 Br
ENDBRANCH   2   3
TORSDOF 1
ENDMDL
