MODEL 1
REMARK VINA RESULT:    -3.292      0.000      0.000
REMARK INTER + INTRA:          -3.485
REMARK INTER:                  -3.485
REMARK INTRA:                   0.000
REMARK UNBOUND:                 0.000
REMARK  1 active torsions:
REMARK  status: ('A' for Active; 'I' for Inactive)
REMARK    1  A    between atoms: C_3  and  C_4 
ROOT
HETATM    1 Br   UNK     0      19.749  37.161   5.187  0.00  0.00    -0.096 Br
HETATM    2  C   UNK     0      18.739  36.027   3.970  0.00  0.00     0.096 C 
ENDROOT
BRANCH   2   3
HETATM    3  C   UNK     0      19.047  36.417   2.547  0.00  0.00     0.096 C 
HETATM    4 Br   UNK     0      20.947  36.171   2.204  0.00  0.00    -0.096 Br
ENDBRANCH   2   3
TORSDOF 1
ENDMDL
