MODEL 1
REMARK VINA RESULT:    -1.969      0.000      0.000
REMARK INTER + INTRA:          -2.084
REMARK INTER:                  -2.084
REMARK INTRA:                   0.000
REMARK UNBOUND:                 0.000
REMARK  1 active torsions:
REMARK  status: ('A' for Active; 'I' for Inactive)
REMARK    1  A    between atoms: C_3  and  C_4 
ROOT
HETATM    1 Br   UNK     0      26.537  33.785  -3.137  0.00  0.00    -0.096 Br
HETATM    2  C   UNK     0      25.290  32.473  -2.423  0.00  0.00     0.096 C 
ENDROOT
BRANCH   2   3
HETATM    3  C   UNK     0      23.876  32.934  -2.678  0.00  0.00     0.096 C 
HETATM    4 Br   UNK     0      23.167  32.018  -4.241  0.00  0.00    -0.096 Br
ENDBRANCH   2   3
TORSDOF 1
ENDMDL
