MODEL 1
REMARK VINA RESULT:    -2.020      0.000      0.000
REMARK INTER + INTRA:          -2.138
REMARK INTER:                  -2.138
REMARK INTRA:                   0.000
REMARK UNBOUND:                 0.000
REMARK  1 active torsions:
REMARK  status: ('A' for Active; 'I' for Inactive)
REMARK    1  A    between atoms: C_3  and  C_4 
ROOT
HETATM    1 Br   UNK     0      23.272  31.855  -4.357  0.00  0.00    -0.096 Br
HETATM    2  C   UNK     0      23.738  32.798  -2.720  0.00  0.00     0.096 C 
ENDROOT
BRANCH   2   3
HETATM    3  C   UNK     0      25.151  32.452  -2.325  0.00  0.00     0.096 C 
HETATM    4 Br   UNK     0      26.376  33.759  -3.086  0.00  0.00    -0.096 Br
ENDBRANCH   2   3
TORSDOF 1
ENDMDL
