MODEL 1
REMARK VINA RESULT:    -2.248      0.000      0.000
REMARK INTER + INTRA:          -2.379
REMARK INTER:                  -2.379
REMARK INTRA:                   0.000
REMARK UNBOUND:                 0.000
REMARK  1 active torsions:
REMARK  status: ('A' for Active; 'I' for Inactive)
REMARK    1  A    between atoms: C_3  and  C_4 
ROOT
HETATM    1 Br   UNK     0      21.279  36.541   1.127  0.00  0.00    -0.096 Br
HETATM    2  C   UNK     0      20.668  34.956   2.077  0.00  0.00     0.096 C 
ENDROOT
BRANCH   2   3
HETATM    3  C   UNK     0      19.634  35.352   3.101  0.00  0.00     0.096 C 
HETATM    4 Br   UNK     0      18.574  36.833   2.415  0.00  0.00    -0.096 Br
ENDBRANCH   2   3
TORSDOF 1
ENDMDL
