MODEL 1
REMARK VINA RESULT:    -3.350      0.000      0.000
REMARK INTER + INTRA:          -3.546
REMARK INTER:                  -3.546
REMARK INTRA:                   0.000
REMARK UNBOUND:                 0.000
REMARK  1 active torsions:
REMARK  status: ('A' for Active; 'I' for Inactive)
REMARK    1  A    between atoms: C_3  and  C_4 
ROOT
HETATM    1 Br   UNK     0      19.360  37.000   5.136  0.00  0.00    -0.096 Br
HETATM    2  C   UNK     0      18.634  36.362   3.447  0.00  0.00     0.096 C 
ENDROOT
BRANCH   2   3
HETATM    3  C   UNK     0      19.638  35.459   2.777  0.00  0.00     0.096 C 
HETATM    4 Br   UNK     0      20.978  36.540   1.869  0.00  0.00    -0.096 Br
ENDBRANCH   2   3
TORSDOF 1
ENDMDL
