MODEL 1
REMARK VINA RESULT:    -3.167      0.000      0.000
REMARK INTER + INTRA:          -3.352
REMARK INTER:                  -3.352
REMARK INTRA:                   0.000
REMARK UNBOUND:                 0.000
REMARK  1 active torsions:
REMARK  status: ('A' for Active; 'I' for Inactive)
REMARK    1  A    between atoms: C_3  and  C_4 
ROOT
HETATM    1 Br   UNK     0      17.680  36.803   2.373  0.00  0.00    -0.096 Br
HETATM    2  C   UNK     0      18.804  36.125   3.810  0.00  0.00     0.096 C 
ENDROOT
BRANCH   2   3
HETATM    3  C   UNK     0      20.163  36.775   3.735  0.00  0.00     0.096 C 
HETATM    4 Br   UNK     0      20.954  36.423   1.992  0.00  0.00    -0.096 Br
ENDBRANCH   2   3
TORSDOF 1
ENDMDL
