REMARK  1 active torsions:
REMARK  status: ('A' for Active; 'I' for Inactive)
REMARK    1  A    between atoms: C_3  and  C_4 
ROOT
HETATM    1 Br   UNK     0      24.281  35.098  -0.361  0.00  0.00    -0.096 Br
HETATM    2  C   UNK     0      22.464  35.794  -0.389  0.00  0.00     0.096 C 
ENDROOT
BRANCH   2   3
HETATM    3  C   UNK     0      21.486  34.646  -0.389  0.00  0.00     0.096 C 
HETATM    4 Br   UNK     0      19.669  35.342  -0.361  0.00  0.00    -0.096 Br
ENDBRANCH   2   3
TORSDOF 1
