REMARK  1 active torsions:
REMARK  status: ('A' for Active; 'I' for Inactive)
REMARK    1  A    between atoms: C_3  and  C_4 
ROOT
HETATM    1 Br   UNK     0      20.934  35.360   2.044  0.00  0.00    -0.096 Br
HETATM    2  C   UNK     0      19.976  36.661   3.129  0.00  0.00     0.096 C 
ENDROOT
BRANCH   2   3
HETATM    3  C   UNK     0      18.968  35.949   3.995  0.00  0.00     0.096 C 
HETATM    4 Br   UNK     0      18.112  37.233   5.182  0.00  0.00    -0.096 Br
ENDBRANCH   2   3
TORSDOF 1
