REMARK  1 active torsions:
REMARK  status: ('A' for Active; 'I' for Inactive)
REMARK    1  A    between atoms: C_3  and  C_4 
ROOT
HETATM    1 Br   UNK     0      21.555  35.614   2.160  0.00  0.00    -0.096 Br
HETATM    2  C   UNK     0      20.115  36.760   2.790  0.00  0.00     0.096 C 
ENDROOT
BRANCH   2   3
HETATM    3  C   UNK     0      19.050  35.917   3.444  0.00  0.00     0.096 C 
HETATM    4 Br   UNK     0      17.706  37.074   4.244  0.00  0.00    -0.096 Br
ENDBRANCH   2   3
TORSDOF 1
