REMARK  1 active torsions:
REMARK  status: ('A' for Active; 'I' for Inactive)
REMARK    1  A    between atoms: C_3  and  C_4 
ROOT
HETATM    1 Br   UNK     0      24.634  34.956  -0.592  0.00  0.00    -0.096 Br
HETATM    2  C   UNK     0      22.817  35.652  -0.620  0.00  0.00     0.096 C 
ENDROOT
BRANCH   2   3
HETATM    3  C   UNK     0      21.839  34.504  -0.620  0.00  0.00     0.096 C 
HETATM    4 Br   UNK     0      20.022  35.200  -0.592  0.00  0.00    -0.096 Br
ENDBRANCH   2   3
TORSDOF 1
