MODEL 1
REMARK VINA RESULT:    -2.529      0.000      0.000
REMARK INTER + INTRA:          -2.677
REMARK INTER:                  -2.677
REMARK INTRA:                   0.000
REMARK UNBOUND:                 0.000
REMARK  1 active torsions:
REMARK  status: ('A' for Active; 'I' for Inactive)
REMARK    1  A    between atoms: C_3  and  C_4 
ROOT
HETATM    1 Br   UNK     0      18.242  36.965   2.211  0.00  0.00    -0.096 Br
HETATM    2  C   UNK     0      19.288  35.518   2.985  0.00  0.00     0.096 C 
ENDROOT
BRANCH   2   3
HETATM    3  C   UNK     0      20.354  35.090   2.007  0.00  0.00     0.096 C 
HETATM    4 Br   UNK     0      21.377  36.646   1.441  0.00  0.00    -0.096 Br
ENDBRANCH   2   3
TORSDOF 1
ENDMDL
