MODEL 1
REMARK VINA RESULT:    -3.018      0.000      0.000
REMARK INTER + INTRA:          -3.195
REMARK INTER:                  -3.195
REMARK INTRA:                   0.000
REMARK UNBOUND:                 0.000
REMARK  1 active torsions:
REMARK  status: ('A' for Active; 'I' for Inactive)
REMARK    1  A    between atoms: C_3  and  C_4 
ROOT
HETATM    1 Br   UNK     0      17.953  36.958   2.308  0.00  0.00    -0.096 Br
HETATM    2  C   UNK     0      19.176  35.837   3.326  0.00  0.00     0.096 C 
ENDROOT
BRANCH   2   3
HETATM    3  C   UNK     0      20.166  35.193   2.388  0.00  0.00     0.096 C 
HETATM    4 Br   UNK     0      21.218  36.574   1.508  0.00  0.00    -0.096 Br
ENDBRANCH   2   3
TORSDOF 1
ENDMDL
