MODEL 1
REMARK VINA RESULT:    -3.344      0.000      0.000
REMARK INTER + INTRA:          -3.540
REMARK INTER:                  -3.540
REMARK INTRA:                   0.000
REMARK UNBOUND:                 0.000
REMARK  1 active torsions:
REMARK  status: ('A' for Active; 'I' for Inactive)
REMARK    1  A    between atoms: C_3  and  C_4 
ROOT
HETATM    1 Br   UNK     0      19.583  37.116   5.137  0.00  0.00    -0.096 Br
HETATM    2  C   UNK     0      18.644  36.471   3.560  0.00  0.00     0.096 C 
ENDROOT
BRANCH   2   3
HETATM    3  C   UNK     0      19.528  35.509   2.806  0.00  0.00     0.096 C 
HETATM    4 Br   UNK     0      20.937  36.499   1.899  0.00  0.00    -0.096 Br
ENDBRANCH   2   3
TORSDOF 1
ENDMDL
