MODEL 1
REMARK VINA RESULT:    97.779      0.000      0.000
REMARK INTER + INTRA:         103.496
REMARK INTER:                 103.496
REMARK INTRA:                   0.000
REMARK UNBOUND:                 0.000
REMARK  1 active torsions:
REMARK  status: ('A' for Active; 'I' for Inactive)
REMARK    1  A    between atoms: C_3  and  C_4 
ROOT
HETATM    1 Br   UNK     0      18.186  36.907   2.257  0.00  0.00    -0.096 Br
HETATM    2  C   UNK     0      19.299  35.466   2.943  0.00  0.00     0.096 C 
ENDROOT
BRANCH   2   3
HETATM    3  C   UNK     0      20.311  35.071   1.897  0.00  0.00     0.096 C 
HETATM    4 Br   UNK     0      21.373  36.625   1.403  0.00  0.00    -0.096 Br
ENDBRANCH   2   3
TORSDOF 1
ENDMDL
