MODEL 1
REMARK VINA RESULT:    -3.318      0.000      0.000
REMARK INTER + INTRA:          -3.512
REMARK INTER:                  -3.512
REMARK INTRA:                   0.000
REMARK UNBOUND:                 0.000
REMARK  1 active torsions:
REMARK  status: ('A' for Active; 'I' for Inactive)
REMARK    1  A    between atoms: C_3  and  C_4 
ROOT
HETATM    1 Br   UNK     0      19.857  37.166   5.109  0.00  0.00    -0.096 Br
HETATM    2  C   UNK     0      18.767  36.005   3.990  0.00  0.00     0.096 C 
ENDROOT
BRANCH   2   3
HETATM    3  C   UNK     0      18.999  36.344   2.539  0.00  0.00     0.096 C 
HETATM    4 Br   UNK     0      20.899  36.219   2.139  0.00  0.00    -0.096 Br
ENDBRANCH   2   3
TORSDOF 1
ENDMDL
