MODEL 1
REMARK VINA RESULT:    -3.272      0.000      0.000
REMARK INTER + INTRA:          -3.463
REMARK INTER:                  -3.463
REMARK INTRA:                   0.000
REMARK UNBOUND:                 0.000
REMARK  1 active torsions:
REMARK  status: ('A' for Active; 'I' for Inactive)
REMARK    1  A    between atoms: C_3  and  C_4 
ROOT
HETATM    1 Br   UNK     0      21.016  36.303   2.077  0.00  0.00    -0.096 Br
HETATM    2  C   UNK     0      19.094  36.356   2.381  0.00  0.00     0.096 C 
ENDROOT
BRANCH   2   3
HETATM    3  C   UNK     0      18.803  36.001   3.817  0.00  0.00     0.096 C 
HETATM    4 Br   UNK     0      19.836  37.157   4.993  0.00  0.00    -0.096 Br
ENDBRANCH   2   3
TORSDOF 1
ENDMDL
