MODEL 1
REMARK VINA RESULT:    -3.293      0.000      0.000
REMARK INTER + INTRA:          -3.485
REMARK INTER:                  -3.485
REMARK INTRA:                   0.000
REMARK UNBOUND:                 0.000
REMARK  1 active torsions:
REMARK  status: ('A' for Active; 'I' for Inactive)
REMARK    1  A    between atoms: C_3  and  C_4 
ROOT
HETATM    1 Br   UNK     0      19.815  37.185   5.171  0.00  0.00    -0.096 Br
HETATM    2  C   UNK     0      18.822  35.993   3.997  0.00  0.00     0.096 C 
ENDROOT
BRANCH   2   3
HETATM    3  C   UNK     0      19.062  36.387   2.561  0.00  0.00     0.096 C 
HETATM    4 Br   UNK     0      20.955  36.208   2.147  0.00  0.00    -0.096 Br
ENDBRANCH   2   3
TORSDOF 1
ENDMDL
