MODEL 1
REMARK VINA RESULT:    -3.240      0.000      0.000
REMARK INTER + INTRA:          -3.429
REMARK INTER:                  -3.429
REMARK INTRA:                   0.000
REMARK UNBOUND:                 0.000
REMARK  1 active torsions:
REMARK  status: ('A' for Active; 'I' for Inactive)
REMARK    1  A    between atoms: C_3  and  C_4 
ROOT
HETATM    1 Br   UNK     0      17.397  37.013   3.706  0.00  0.00    -0.096 Br
HETATM    2  C   UNK     0      19.186  36.304   3.995  0.00  0.00     0.096 C 
ENDROOT
BRANCH   2   3
HETATM    3  C   UNK     0      19.611  35.505   2.788  0.00  0.00     0.096 C 
HETATM    4 Br   UNK     0      21.032  36.451   1.853  0.00  0.00    -0.096 Br
ENDBRANCH   2   3
TORSDOF 1
ENDMDL
