MODEL 1
REMARK VINA RESULT:    42.092      0.000      0.000
REMARK INTER + INTRA:          44.552
REMARK INTER:                  44.552
REMARK INTRA:                   0.000
REMARK UNBOUND:                 0.000
REMARK  1 active torsions:
REMARK  status: ('A' for Active; 'I' for Inactive)
REMARK    1  A    between atoms: C_3  and  C_4 
ROOT
HETATM    1 Br   UNK     0      17.873  36.785   2.658  0.00  0.00    -0.096 Br
HETATM    2  C   UNK     0      19.272  35.696   3.461  0.00  0.00     0.096 C 
ENDROOT
BRANCH   2   3
HETATM    3  C   UNK     0      20.134  35.104   2.374  0.00  0.00     0.096 C 
HETATM    4 Br   UNK     0      21.243  36.500   1.594  0.00  0.00    -0.096 Br
ENDBRANCH   2   3
TORSDOF 1
ENDMDL
