MODEL 1
REMARK VINA RESULT:    -3.221      0.000      0.000
REMARK INTER + INTRA:          -3.409
REMARK INTER:                  -3.409
REMARK INTRA:                   0.000
REMARK UNBOUND:                 0.000
REMARK  1 active torsions:
REMARK  status: ('A' for Active; 'I' for Inactive)
REMARK    1  A    between atoms: C_3  and  C_4 
ROOT
HETATM    1 Br   UNK     0      17.398  37.021   3.608  0.00  0.00    -0.096 Br
HETATM    2  C   UNK     0      19.226  36.412   3.880  0.00  0.00     0.096 C 
ENDROOT
BRANCH   2   3
HETATM    3  C   UNK     0      19.629  35.508   2.743  0.00  0.00     0.096 C 
HETATM    4 Br   UNK     0      21.078  36.334   1.740  0.00  0.00    -0.096 Br
ENDBRANCH   2   3
TORSDOF 1
ENDMDL
