MODEL 1
REMARK CAVERDOCK RESULT:      -1.1      0.000      0.000
REMARK CAVERDOCK CONSTRAINTS:       0.0      0.0      0.0      0.0
REMARK CAVERDOCK TUNNEL: 0     -1.1      1.8      1.5
REMARK  1 active torsions:
REMARK  status: ('A' for Active; 'I' for Inactive)
REMARK    1  A    between atoms: C3_3  and  C4_4 
ROOT
HETATM    1 Br1  UNK     0      25.646  33.718  -2.803  0.00  0.00    -0.096 Br
HETATM    2  C3  UNK     0      23.866  33.677  -2.017  0.00  0.00    -0.005 C 
HETATM    3  H5  UNK     0      23.408  34.647  -2.226  0.00  0.00     0.051 H 
HETATM    4  H6  UNK     0      24.007  33.574  -0.936  0.00  0.00     0.051 H 
ENDROOT
BRANCH   2   5
HETATM    5  C4  UNK     0      23.082  32.532  -2.606  0.00  0.00    -0.005 C 
HETATM    6 Br2  UNK     0      23.866  32.019  -4.312  0.00  0.00    -0.096 Br
HETATM    7  H7  UNK     0      22.041  32.800  -2.812  0.00  0.00     0.051 H 
HETATM    8  H8  UNK     0      23.103  31.641  -1.971  0.00  0.00     0.051 H 
ENDBRANCH   2   5
TORSDOF 1
ENDMDL
MODEL 2
REMARK CAVERDOCK RESULT:      -1.0      0.000      0.000
REMARK CAVERDOCK CONSTRAINTS:       0.0      0.0      0.0      0.0
REMARK CAVERDOCK TUNNEL: 1     -1.0      1.8     2.11
REMARK  1 active torsions:
REMARK  status: ('A' for Active; 'I' for Inactive)
REMARK    1  A    between atoms: C3_3  and  C4_4 
ROOT
HETATM    1 Br1  UNK     0      25.658  33.482  -2.807  0.00  0.00    -0.096 Br
HETATM    2  C3  UNK     0      23.914  33.786  -1.998  0.00  0.00    -0.005 C 
HETATM    3  H5  UNK     0      23.679  34.844  -2.149  0.00  0.00     0.051 H 
HETATM    4  H6  UNK     0      24.032  33.596  -0.927  0.00  0.00     0.051 H 
ENDROOT
BRANCH   2   5
HETATM    5  C4  UNK     0      22.897  32.874  -2.638  0.00  0.00    -0.005 C 
HETATM    6 Br2  UNK     0      23.669  32.054  -4.225  0.00  0.00    -0.096 Br
HETATM    7  H7  UNK     0      22.004  33.412  -2.970  0.00  0.00     0.051 H 
HETATM    8  H8  UNK     0      22.597  32.056  -1.976  0.00  0.00     0.051 H 
ENDBRANCH   2   5
TORSDOF 1
ENDMDL
MODEL 3
REMARK CAVERDOCK RESULT:      -0.3      0.000      0.000
REMARK CAVERDOCK CONSTRAINTS:       0.0      0.0      0.0      0.0
REMARK CAVERDOCK TUNNEL: 2     -0.3      1.7      3.1
REMARK  1 active torsions:
REMARK  status: ('A' for Active; 'I' for Inactive)
REMARK    1  A    between atoms: C3_3  and  C4_4 
ROOT
HETATM    1 Br1  UNK     0      25.626  33.710  -2.507  0.00  0.00    -0.096 Br
HETATM    2  C3  UNK     0      23.805  34.080  -1.931  0.00  0.00    -0.005 C 
HETATM    3  H5  UNK     0      23.517  35.030  -2.390  0.00  0.00     0.051 H 
HETATM    4  H6  UNK     0      23.843  34.206  -0.844  0.00  0.00     0.051 H 
ENDROOT
BRANCH   2   5
HETATM    5  C4  UNK     0      22.905  32.944  -2.347  0.00  0.00    -0.005 C 
HETATM    6 Br2  UNK     0      23.692  32.018  -3.867  0.00  0.00    -0.096 Br
HETATM    7  H7  UNK     0      21.918  33.289  -2.672  0.00  0.00     0.051 H 
HETATM    8  H8  UNK     0      22.781  32.199  -1.556  0.00  0.00     0.051 H 
ENDBRANCH   2   5
TORSDOF 1
ENDMDL
MODEL 4
REMARK CAVERDOCK RESULT:      -0.1      0.000      0.000
REMARK CAVERDOCK CONSTRAINTS:       0.0      0.0      0.0      0.0
REMARK CAVERDOCK TUNNEL: 3     -0.1      1.7      4.1
REMARK  1 active torsions:
REMARK  status: ('A' for Active; 'I' for Inactive)
REMARK    1  A    between atoms: C3_3  and  C4_4 
ROOT
HETATM    1 Br1  UNK     0      22.501  35.538  -1.321  0.00  0.00    -0.096 Br
HETATM    2  C3  UNK     0      22.984  33.687  -1.679  0.00  0.00    -0.005 C 
HETATM    3  H5  UNK     0      22.127  33.231  -2.183  0.00  0.00     0.051 H 
HETATM    4  H6  UNK     0      23.121  33.208  -0.705  0.00  0.00     0.051 H 
ENDROOT
BRANCH   2   5
HETATM    5  C4  UNK     0      24.234  33.648  -2.522  0.00  0.00    -0.005 C 
HETATM    6 Br2  UNK     0      24.142  32.140  -3.749  0.00  0.00    -0.096 Br
HETATM    7  H7  UNK     0      25.138  33.505  -1.922  0.00  0.00     0.051 H 
HETATM    8  H8  UNK     0      24.351  34.545  -3.136  0.00  0.00     0.051 H 
ENDBRANCH   2   5
TORSDOF 1
ENDMDL
MODEL 5
REMARK CAVERDOCK RESULT:      -0.0      0.000      0.000
REMARK CAVERDOCK CONSTRAINTS:       0.0      0.0      0.0      0.0
REMARK CAVERDOCK TUNNEL: 4     -0.0      1.6      5.5
REMARK  1 active torsions:
REMARK  status: ('A' for Active; 'I' for Inactive)
REMARK    1  A    between atoms: C3_3  and  C4_4 
ROOT
HETATM    1 Br1  UNK     0      22.635  35.882  -1.231  0.00  0.00    -0.096 Br
HETATM    2  C3  UNK     0      22.565  34.041  -1.858  0.00  0.00    -0.005 C 
HETATM    3  H5  UNK     0      21.832  34.014  -2.670  0.00  0.00     0.051 H 
HETATM    4  H6  UNK     0      22.193  33.442  -1.021  0.00  0.00     0.051 H 
ENDROOT
BRANCH   2   5
HETATM    5  C4  UNK     0      23.938  33.611  -2.309  0.00  0.00    -0.005 C 
HETATM    6 Br2  UNK     0      23.774  32.144  -3.577  0.00  0.00    -0.096 Br
HETATM    7  H7  UNK     0      24.552  33.240  -1.483  0.00  0.00     0.051 H 
HETATM    8  H8  UNK     0      24.478  34.412  -2.823  0.00  0.00     0.051 H 
ENDBRANCH   2   5
TORSDOF 1
ENDMDL
MODEL 6
REMARK CAVERDOCK RESULT:      -0.0      0.000      0.000
REMARK CAVERDOCK CONSTRAINTS:       0.0      0.0      0.0      0.0
REMARK CAVERDOCK TUNNEL: 5     -0.0      1.5      6.1
REMARK  1 active torsions:
REMARK  status: ('A' for Active; 'I' for Inactive)
REMARK    1  A    between atoms: C3_3  and  C4_4 
ROOT
HETATM    1 Br1  UNK     0      24.021  33.350  -2.756  0.00  0.00    -0.096 Br
HETATM    2  C3  UNK     0      22.742  34.195  -1.557  0.00  0.00    -0.005 C 
HETATM    3  H5  UNK     0      22.949  33.810  -0.555  0.00  0.00     0.051 H 
HETATM    4  H6  UNK     0      21.750  33.856  -1.873  0.00  0.00     0.051 H 
ENDROOT
BRANCH   2   5
HETATM    5  C4  UNK     0      22.891  35.694  -1.640  0.00  0.00    -0.005 C 
HETATM    6 Br2  UNK     0      22.021  36.517  -0.106  0.00  0.00    -0.096 Br
HETATM    7  H7  UNK     0      22.411  36.113  -2.530  0.00  0.00     0.051 H 
HETATM    8  H8  UNK     0      23.937  36.011  -1.615  0.00  0.00     0.051 H 
ENDBRANCH   2   5
TORSDOF 1
ENDMDL
MODEL 7
REMARK CAVERDOCK RESULT:      -0.2      0.000      0.000
REMARK CAVERDOCK CONSTRAINTS:       0.0      0.0      0.0      0.0
REMARK CAVERDOCK TUNNEL: 6     -0.2      1.4      7.1
REMARK  1 active torsions:
REMARK  status: ('A' for Active; 'I' for Inactive)
REMARK    1  A    between atoms: C3_3  and  C4_4 
ROOT
HETATM    1 Br1  UNK     0      23.809  33.309  -2.513  0.00  0.00    -0.096 Br
HETATM    2  C3  UNK     0      22.543  34.274  -1.393  0.00  0.00    -0.005 C 
HETATM    3  H5  UNK     0      22.574  33.803  -0.407  0.00  0.00     0.051 H 
HETATM    4  H6  UNK     0      21.555  34.115  -1.835  0.00  0.00     0.051 H 
ENDROOT
BRANCH   2   5
HETATM    5  C4  UNK     0      22.925  35.733  -1.345  0.00  0.00    -0.005 C 
HETATM    6 Br2  UNK     0      21.774  36.663  -0.081  0.00  0.00    -0.096 Br
HETATM    7  H7  UNK     0      22.792  36.231  -2.310  0.00  0.00     0.051 H 
HETATM    8  H8  UNK     0      23.953  35.883  -1.004  0.00  0.00     0.051 H 
ENDBRANCH   2   5
TORSDOF 1
ENDMDL
MODEL 8
REMARK CAVERDOCK RESULT:      -0.4      0.000      0.000
REMARK CAVERDOCK CONSTRAINTS:       0.0      0.0      0.0      0.0
REMARK CAVERDOCK TUNNEL: 7     -0.4      1.4      8.1
REMARK  1 active torsions:
REMARK  status: ('A' for Active; 'I' for Inactive)
REMARK    1  A    between atoms: C3_3  and  C4_4 
ROOT
HETATM    1 Br1  UNK     0      23.822  33.512  -2.366  0.00  0.00    -0.096 Br
HETATM    2  C3  UNK     0      22.506  34.395  -1.236  0.00  0.00    -0.005 C 
HETATM    3  H5  UNK     0      22.657  34.013  -0.222  0.00  0.00     0.051 H 
HETATM    4  H6  UNK     0      21.524  34.075  -1.596  0.00  0.00     0.051 H 
ENDROOT
BRANCH   2   5
HETATM    5  C4  UNK     0      22.693  35.889  -1.321  0.00  0.00    -0.005 C 
HETATM    6 Br2  UNK     0      21.747  36.745   0.149  0.00  0.00    -0.096 Br
HETATM    7  H7  UNK     0      22.279  36.310  -2.243  0.00  0.00     0.051 H 
HETATM    8  H8  UNK     0      23.742  36.184  -1.233  0.00  0.00     0.051 H 
ENDBRANCH   2   5
TORSDOF 1
ENDMDL
MODEL 9
REMARK CAVERDOCK RESULT:      -0.4      0.000      0.000
REMARK CAVERDOCK CONSTRAINTS:       0.0      0.0      0.0      0.0
REMARK CAVERDOCK TUNNEL: 8     -0.4      1.3      9.1
REMARK  1 active torsions:
REMARK  status: ('A' for Active; 'I' for Inactive)
REMARK    1  A    between atoms: C3_3  and  C4_4 
ROOT
HETATM    1 Br1  UNK     0      23.541  33.680  -2.406  0.00  0.00    -0.096 Br
HETATM    2  C3  UNK     0      22.427  34.586  -1.093  0.00  0.00    -0.005 C 
HETATM    3  H5  UNK     0      22.757  34.240  -0.109  0.00  0.00     0.051 H 
HETATM    4  H6  UNK     0      21.402  34.242  -1.266  0.00  0.00     0.051 H 
ENDROOT
BRANCH   2   5
HETATM    5  C4  UNK     0      22.569  36.078  -1.256  0.00  0.00    -0.005 C 
HETATM    6 Br2  UNK     0      21.764  36.977   0.270  0.00  0.00    -0.096 Br
HETATM    7  H7  UNK     0      22.052  36.453  -2.145  0.00  0.00     0.051 H 
HETATM    8  H8  UNK     0      23.615  36.395  -1.291  0.00  0.00     0.051 H 
ENDBRANCH   2   5
TORSDOF 1
ENDMDL
MODEL 10
REMARK CAVERDOCK RESULT:      -0.5      0.000      0.000
REMARK CAVERDOCK CONSTRAINTS:       0.0      0.0      0.0      0.0
REMARK CAVERDOCK TUNNEL: 9     -0.5      1.3     10.3
REMARK  1 active torsions:
REMARK  status: ('A' for Active; 'I' for Inactive)
REMARK    1  A    between atoms: C3_3  and  C4_4 
ROOT
HETATM    1 Br1  UNK     0      23.691  33.805  -2.011  0.00  0.00    -0.096 Br
HETATM    2  C3  UNK     0      22.253  34.752  -1.103  0.00  0.00    -0.005 C 
HETATM    3  H5  UNK     0      22.267  34.419  -0.061  0.00  0.00     0.051 H 
HETATM    4  H6  UNK     0      21.321  34.423  -1.572  0.00  0.00     0.051 H 
ENDROOT
BRANCH   2   5
HETATM    5  C4  UNK     0      22.470  36.239  -1.234  0.00  0.00    -0.005 C 
HETATM    6 Br2  UNK     0      21.921  37.121   0.412  0.00  0.00    -0.096 Br
HETATM    7  H7  UNK     0      21.871  36.679  -2.037  0.00  0.00     0.051 H 
HETATM    8  H8  UNK     0      23.522  36.494  -1.391  0.00  0.00     0.051 H 
ENDBRANCH   2   5
TORSDOF 1
ENDMDL
MODEL 11
REMARK CAVERDOCK RESULT:      -0.5      0.000      0.000
REMARK CAVERDOCK CONSTRAINTS:       0.0      0.0      0.0      0.0
REMARK CAVERDOCK TUNNEL: 10     -0.5      1.3     11.6
REMARK  1 active torsions:
REMARK  status: ('A' for Active; 'I' for Inactive)
REMARK    1  A    between atoms: C3_3  and  C4_4 
ROOT
HETATM    1 Br1  UNK     0      23.340  34.298  -1.988  0.00  0.00    -0.096 Br
HETATM    2  C3  UNK     0      22.513  35.914  -1.286  0.00  0.00    -0.005 C 
HETATM    3  H5  UNK     0      21.834  36.282  -2.061  0.00  0.00     0.051 H 
HETATM    4  H6  UNK     0      23.321  36.639  -1.145  0.00  0.00     0.051 H 
ENDROOT
BRANCH   2   5
HETATM    5  C4  UNK     0      21.796  35.593   0.001  0.00  0.00    -0.005 C 
HETATM    6 Br2  UNK     0      21.429  37.242   0.967  0.00  0.00    -0.096 Br
HETATM    7  H7  UNK     0      22.397  34.969   0.670  0.00  0.00     0.051 H 
HETATM    8  H8  UNK     0      20.831  35.108  -0.169  0.00  0.00     0.051 H 
ENDBRANCH   2   5
TORSDOF 1
ENDMDL
MODEL 12
REMARK CAVERDOCK RESULT:      -0.5      0.000      0.000
REMARK CAVERDOCK CONSTRAINTS:       0.0      0.0      0.0      0.0
REMARK CAVERDOCK TUNNEL: 11     -0.5      1.4     12.6
REMARK  1 active torsions:
REMARK  status: ('A' for Active; 'I' for Inactive)
REMARK    1  A    between atoms: C3_3  and  C4_4 
ROOT
HETATM    1 Br1  UNK     0      21.679  36.860   0.545  0.00  0.00    -0.096 Br
HETATM    2  C3  UNK     0      22.552  36.191  -1.061  0.00  0.00    -0.005 C 
HETATM    3  H5  UNK     0      23.626  36.339  -0.920  0.00  0.00     0.051 H 
HETATM    4  H6  UNK     0      22.209  36.824  -1.886  0.00  0.00     0.051 H 
ENDROOT
BRANCH   2   5
HETATM    5  C4  UNK     0      22.193  34.740  -1.261  0.00  0.00    -0.005 C 
HETATM    6 Br2  UNK     0      23.714  33.795  -2.022  0.00  0.00    -0.096 Br
HETATM    7  H7  UNK     0      21.363  34.607  -1.962  0.00  0.00     0.051 H 
HETATM    8  H8  UNK     0      21.950  34.238  -0.320  0.00  0.00     0.051 H 
ENDBRANCH   2   5
TORSDOF 1
ENDMDL
MODEL 13
REMARK CAVERDOCK RESULT:      -0.3      0.000      0.000
REMARK CAVERDOCK CONSTRAINTS:       0.0      0.0      0.0      0.0
REMARK CAVERDOCK TUNNEL: 12     -0.3      1.4     13.1
REMARK  1 active torsions:
REMARK  status: ('A' for Active; 'I' for Inactive)
REMARK    1  A    between atoms: C3_3  and  C4_4 
ROOT
HETATM    1 Br1  UNK     0      22.761  34.494  -1.299  0.00  0.00    -0.096 Br
HETATM    2  C3  UNK     0      22.195  36.351  -1.179  0.00  0.00    -0.005 C 
HETATM    3  H5  UNK     0      21.193  36.403  -1.613  0.00  0.00     0.051 H 
HETATM    4  H6  UNK     0      22.886  36.927  -1.803  0.00  0.00     0.051 H 
ENDROOT
BRANCH   2   5
HETATM    5  C4  UNK     0      22.220  36.792   0.263  0.00  0.00    -0.005 C 
HETATM    6 Br2  UNK     0      21.008  35.678   1.302  0.00  0.00    -0.096 Br
HETATM    7  H7  UNK     0      21.878  37.824   0.391  0.00  0.00     0.051 H 
HETATM    8  H8  UNK     0      23.210  36.685   0.715  0.00  0.00     0.051 H 
ENDBRANCH   2   5
TORSDOF 1
ENDMDL
MODEL 14
REMARK CAVERDOCK RESULT:      -0.4      0.000      0.000
REMARK CAVERDOCK CONSTRAINTS:       0.0      0.0      0.0      0.0
REMARK CAVERDOCK TUNNEL: 13     -0.4      1.4     14.5
REMARK  1 active torsions:
REMARK  status: ('A' for Active; 'I' for Inactive)
REMARK    1  A    between atoms: C3_3  and  C4_4 
ROOT
HETATM    1 Br1  UNK     0      22.944  34.872  -1.545  0.00  0.00    -0.096 Br
HETATM    2  C3  UNK     0      21.992  36.488  -1.028  0.00  0.00    -0.005 C 
HETATM    3  H5  UNK     0      20.932  36.305  -1.227  0.00  0.00     0.051 H 
HETATM    4  H6  UNK     0      22.347  37.283  -1.692  0.00  0.00     0.051 H 
ENDROOT
BRANCH   2   5
HETATM    5  C4  UNK     0      22.261  36.788   0.425  0.00  0.00    -0.005 C 
HETATM    6 Br2  UNK     0      20.894  35.947   1.525  0.00  0.00    -0.096 Br
HETATM    7  H7  UNK     0      22.220  37.859   0.646  0.00  0.00     0.051 H 
HETATM    8  H8  UNK     0      23.223  36.390   0.761  0.00  0.00     0.051 H 
ENDBRANCH   2   5
TORSDOF 1
ENDMDL
MODEL 15
REMARK CAVERDOCK RESULT:      -0.8      0.000      0.000
REMARK CAVERDOCK CONSTRAINTS:       0.0      0.0      0.0      0.0
REMARK CAVERDOCK TUNNEL: 14     -0.8      1.4     15.1
REMARK  1 active torsions:
REMARK  status: ('A' for Active; 'I' for Inactive)
REMARK    1  A    between atoms: C3_3  and  C4_4 
ROOT
HETATM    1 Br1  UNK     0      22.323  37.439   0.278  0.00  0.00    -0.096 Br
HETATM    2  C3  UNK     0      21.993  35.591  -0.236  0.00  0.00    -0.005 C 
HETATM    3  H5  UNK     0      22.967  35.096  -0.269  0.00  0.00     0.051 H 
HETATM    4  H6  UNK     0      21.573  35.621  -1.246  0.00  0.00     0.051 H 
ENDROOT
BRANCH   2   5
HETATM    5  C4  UNK     0      21.056  34.953   0.758  0.00  0.00    -0.005 C 
HETATM    6 Br2  UNK     0      20.526  36.270   2.088  0.00  0.00    -0.096 Br
HETATM    7  H7  UNK     0      21.526  34.130   1.307  0.00  0.00     0.051 H 
HETATM    8  H8  UNK     0      20.136  34.590   0.291  0.00  0.00     0.051 H 
ENDBRANCH   2   5
TORSDOF 1
ENDMDL
MODEL 16
REMARK CAVERDOCK RESULT:      -1.1      0.000      0.000
REMARK CAVERDOCK CONSTRAINTS:       0.0      0.0      0.0      0.0
REMARK CAVERDOCK TUNNEL: 15     -1.1      1.5     16.1
REMARK  1 active torsions:
REMARK  status: ('A' for Active; 'I' for Inactive)
REMARK    1  A    between atoms: C3_3  and  C4_4 
ROOT
HETATM    1 Br1  UNK     0      22.254  37.369   0.197  0.00  0.00    -0.096 Br
HETATM    2  C3  UNK     0      21.666  35.539  -0.108  0.00  0.00    -0.005 C 
HETATM    3  H5  UNK     0      22.557  34.964  -0.377  0.00  0.00     0.051 H 
HETATM    4  H6  UNK     0      20.988  35.570  -0.967  0.00  0.00     0.051 H 
ENDROOT
BRANCH   2   5
HETATM    5  C4  UNK     0      20.996  35.012   1.136  0.00  0.00    -0.005 C 
HETATM    6 Br2  UNK     0      20.261  36.498   2.155  0.00  0.00    -0.096 Br
HETATM    7  H7  UNK     0      21.695  34.496   1.801  0.00  0.00     0.051 H 
HETATM    8  H8  UNK     0      20.161  34.344   0.908  0.00  0.00     0.051 H 
ENDBRANCH   2   5
TORSDOF 1
ENDMDL
MODEL 17
REMARK CAVERDOCK RESULT:      -1.5      0.000      0.000
REMARK CAVERDOCK CONSTRAINTS:       0.0      0.0      0.0      0.0
REMARK CAVERDOCK TUNNEL: 16     -1.5      1.6     17.4
REMARK  1 active torsions:
REMARK  status: ('A' for Active; 'I' for Inactive)
REMARK    1  A    between atoms: C3_3  and  C4_4 
ROOT
HETATM    1 Br1  UNK     0      22.536  36.338  -1.391  0.00  0.00    -0.096 Br
HETATM    2  C3  UNK     0      21.750  35.641   0.248  0.00  0.00    -0.005 C 
HETATM    3  H5  UNK     0      22.476  34.941   0.671  0.00  0.00     0.051 H 
HETATM    4  H6  UNK     0      20.853  35.090  -0.049  0.00  0.00     0.051 H 
ENDROOT
BRANCH   2   5
HETATM    5  C4  UNK     0      21.442  36.784   1.183  0.00  0.00    -0.005 C 
HETATM    6 Br2  UNK     0      20.873  36.077   2.904  0.00  0.00    -0.096 Br
HETATM    7  H7  UNK     0      20.622  37.412   0.819  0.00  0.00     0.051 H 
HETATM    8  H8  UNK     0      22.316  37.413   1.375  0.00  0.00     0.051 H 
ENDBRANCH   2   5
TORSDOF 1
ENDMDL
MODEL 18
REMARK CAVERDOCK RESULT:      -1.8      0.000      0.000
REMARK CAVERDOCK CONSTRAINTS:       0.0      0.0      0.0      0.0
REMARK CAVERDOCK TUNNEL: 17     -1.8      1.7     18.8
REMARK  1 active torsions:
REMARK  status: ('A' for Active; 'I' for Inactive)
REMARK    1  A    between atoms: C3_3  and  C4_4 
ROOT
HETATM    1 Br1  UNK     0      21.798  37.354   0.624  0.00  0.00    -0.096 Br
HETATM    2  C3  UNK     0      21.628  35.421   0.480  0.00  0.00    -0.005 C 
HETATM    3  H5  UNK     0      22.626  35.005   0.643  0.00  0.00     0.051 H 
HETATM    4  H6  UNK     0      21.317  35.213  -0.548  0.00  0.00     0.051 H 
ENDROOT
BRANCH   2   5
HETATM    5  C4  UNK     0      20.627  34.928   1.495  0.00  0.00    -0.005 C 
HETATM    6 Br2  UNK     0      21.106  35.600   3.258  0.00  0.00    -0.096 Br
HETATM    7  H7  UNK     0      20.614  33.837   1.573  0.00  0.00     0.051 H 
HETATM    8  H8  UNK     0      19.614  35.284   1.289  0.00  0.00     0.051 H 
ENDBRANCH   2   5
TORSDOF 1
ENDMDL
MODEL 19
REMARK CAVERDOCK RESULT:      -2.1      0.000      0.000
REMARK CAVERDOCK CONSTRAINTS:       0.0      0.0      0.0      0.0
REMARK CAVERDOCK TUNNEL: 18     -2.1      1.7     19.1
REMARK  1 active torsions:
REMARK  status: ('A' for Active; 'I' for Inactive)
REMARK    1  A    between atoms: C3_3  and  C4_4 
ROOT
HETATM    1 Br1  UNK     0      21.847  37.084   0.638  0.00  0.00    -0.096 Br
HETATM    2  C3  UNK     0      21.370  35.198   0.624  0.00  0.00    -0.005 C 
HETATM    3  H5  UNK     0      22.307  34.637   0.676  0.00  0.00     0.051 H 
HETATM    4  H6  UNK     0      20.892  35.006  -0.342  0.00  0.00     0.051 H 
ENDROOT
BRANCH   2   5
HETATM    5  C4  UNK     0      20.457  34.902   1.788  0.00  0.00    -0.005 C 
HETATM    6 Br2  UNK     0      21.262  35.569   3.429  0.00  0.00    -0.096 Br
HETATM    7  H7  UNK     0      20.300  33.828   1.933  0.00  0.00     0.051 H 
HETATM    8  H8  UNK     0      19.486  35.395   1.691  0.00  0.00     0.051 H 
ENDBRANCH   2   5
TORSDOF 1
ENDMDL
MODEL 20
REMARK CAVERDOCK RESULT:      -2.3      0.000      0.000
REMARK CAVERDOCK CONSTRAINTS:       0.0      0.0      0.0      0.0
REMARK CAVERDOCK TUNNEL: 19     -2.3      1.8     20.1
REMARK  1 active torsions:
REMARK  status: ('A' for Active; 'I' for Inactive)
REMARK    1  A    between atoms: C3_3  and  C4_4 
ROOT
HETATM    1 Br1  UNK     0      21.643  37.171   0.683  0.00  0.00    -0.096 Br
HETATM    2  C3  UNK     0      21.148  35.289   0.694  0.00  0.00    -0.005 C 
HETATM    3  H5  UNK     0      22.081  34.719   0.705  0.00  0.00     0.051 H 
HETATM    4  H6  UNK     0      20.624  35.101  -0.249  0.00  0.00     0.051 H 
ENDROOT
BRANCH   2   5
HETATM    5  C4  UNK     0      20.285  35.004   1.898  0.00  0.00    -0.005 C 
HETATM    6 Br2  UNK     0      21.306  35.339   3.521  0.00  0.00    -0.096 Br
HETATM    7  H7  UNK     0      19.965  33.958   1.944  0.00  0.00     0.051 H 
HETATM    8  H8  UNK     0      19.404  35.650   1.942  0.00  0.00     0.051 H 
ENDBRANCH   2   5
TORSDOF 1
ENDMDL
MODEL 21
REMARK CAVERDOCK RESULT:      -2.3      0.000      0.000
REMARK CAVERDOCK CONSTRAINTS:       0.0      0.0      0.0      0.0
REMARK CAVERDOCK TUNNEL: 20     -2.3      1.8     21.1
REMARK  1 active torsions:
REMARK  status: ('A' for Active; 'I' for Inactive)
REMARK    1  A    between atoms: C3_3  and  C4_4 
ROOT
HETATM    1 Br1  UNK     0      21.634  37.134   0.395  0.00  0.00    -0.096 Br
HETATM    2  C3  UNK     0      21.087  35.327   0.867  0.00  0.00    -0.005 C 
HETATM    3  H5  UNK     0      22.003  34.764   1.067  0.00  0.00     0.051 H 
HETATM    4  H6  UNK     0      20.597  34.910  -0.019  0.00  0.00     0.051 H 
ENDROOT
BRANCH   2   5
HETATM    5  C4  UNK     0      20.169  35.376   2.062  0.00  0.00    -0.005 C 
HETATM    6 Br2  UNK     0      21.224  35.604   3.681  0.00  0.00    -0.096 Br
HETATM    7  H7  UNK     0      19.600  34.450   2.191  0.00  0.00     0.051 H 
HETATM    8  H8  UNK     0      19.473  36.219   2.020  0.00  0.00     0.051 H 
ENDBRANCH   2   5
TORSDOF 1
ENDMDL
MODEL 22
REMARK CAVERDOCK RESULT:      -2.4      0.000      0.000
REMARK CAVERDOCK CONSTRAINTS:       0.0      0.0      0.0      0.0
REMARK CAVERDOCK TUNNEL: 21     -2.4      1.9     22.5
REMARK  1 active torsions:
REMARK  status: ('A' for Active; 'I' for Inactive)
REMARK    1  A    between atoms: C3_3  and  C4_4 
ROOT
HETATM    1 Br1  UNK     0      21.615  37.021   0.434  0.00  0.00    -0.096 Br
HETATM    2  C3  UNK     0      21.245  35.314   1.293  0.00  0.00    -0.005 C 
HETATM    3  H5  UNK     0      22.110  35.085   1.922  0.00  0.00     0.051 H 
HETATM    4  H6  UNK     0      21.179  34.572   0.492  0.00  0.00     0.051 H 
ENDROOT
BRANCH   2   5
HETATM    5  C4  UNK     0      19.968  35.418   2.089  0.00  0.00    -0.005 C 
HETATM    6 Br2  UNK     0      20.368  35.241   3.985  0.00  0.00    -0.096 Br
HETATM    7  H7  UNK     0      19.258  34.621   1.846  0.00  0.00     0.051 H 
HETATM    8  H8  UNK     0      19.475  36.386   1.961  0.00  0.00     0.051 H 
ENDBRANCH   2   5
TORSDOF 1
ENDMDL
MODEL 23
REMARK CAVERDOCK RESULT:      -2.4      0.000      0.000
REMARK CAVERDOCK CONSTRAINTS:       0.0      0.0      0.0      0.0
REMARK CAVERDOCK TUNNEL: 22     -2.4      2.0     23.8
REMARK  1 active torsions:
REMARK  status: ('A' for Active; 'I' for Inactive)
REMARK    1  A    between atoms: C3_3  and  C4_4 
ROOT
HETATM    1 Br1  UNK     0      21.451  37.093   0.630  0.00  0.00    -0.096 Br
HETATM    2  C3  UNK     0      21.206  35.380   1.520  0.00  0.00    -0.005 C 
HETATM    3  H5  UNK     0      22.077  35.234   2.165  0.00  0.00     0.051 H 
HETATM    4  H6  UNK     0      21.212  34.618   0.733  0.00  0.00     0.051 H 
ENDROOT
BRANCH   2   5
HETATM    5  C4  UNK     0      19.913  35.396   2.295  0.00  0.00    -0.005 C 
HETATM    6 Br2  UNK     0      20.282  35.801   4.163  0.00  0.00    -0.096 Br
HETATM    7  H7  UNK     0      19.405  34.427   2.283  0.00  0.00     0.051 H 
HETATM    8  H8  UNK     0      19.222  36.165   1.938  0.00  0.00     0.051 H 
ENDBRANCH   2   5
TORSDOF 1
ENDMDL
MODEL 24
REMARK CAVERDOCK RESULT:      -2.5      0.000      0.000
REMARK CAVERDOCK CONSTRAINTS:       0.0      0.0      0.0      0.0
REMARK CAVERDOCK TUNNEL: 23     -2.5      2.0     24.1
REMARK  1 active torsions:
REMARK  status: ('A' for Active; 'I' for Inactive)
REMARK    1  A    between atoms: C3_3  and  C4_4 
ROOT
HETATM    1 Br1  UNK     0      21.490  36.877   1.091  0.00  0.00    -0.096 Br
HETATM    2  C3  UNK     0      20.731  35.128   1.479  0.00  0.00    -0.005 C 
HETATM    3  H5  UNK     0      21.276  34.405   0.865  0.00  0.00     0.051 H 
HETATM    4  H6  UNK     0      19.688  35.162   1.149  0.00  0.00     0.051 H 
ENDROOT
BRANCH   2   5
HETATM    5  C4  UNK     0      20.858  34.841   2.954  0.00  0.00    -0.005 C 
HETATM    6 Br2  UNK     0      20.336  36.417   3.969  0.00  0.00    -0.096 Br
HETATM    7  H7  UNK     0      21.887  34.610   3.248  0.00  0.00     0.051 H 
HETATM    8  H8  UNK     0      20.203  34.027   3.279  0.00  0.00     0.051 H 
ENDBRANCH   2   5
TORSDOF 1
ENDMDL
MODEL 25
REMARK CAVERDOCK RESULT:      -2.6      0.000      0.000
REMARK CAVERDOCK CONSTRAINTS:       0.0      0.0      0.0      0.0
REMARK CAVERDOCK TUNNEL: 24     -2.6      2.1     25.1
REMARK  1 active torsions:
REMARK  status: ('A' for Active; 'I' for Inactive)
REMARK    1  A    between atoms: C3_3  and  C4_4 
ROOT
HETATM    1 Br1  UNK     0      21.345  37.027   0.901  0.00  0.00    -0.096 Br
HETATM    2  C3  UNK     0      20.736  35.362   1.702  0.00  0.00    -0.005 C 
HETATM    3  H5  UNK     0      21.603  34.915   2.196  0.00  0.00     0.051 H 
HETATM    4  H6  UNK     0      20.424  34.716   0.875  0.00  0.00     0.051 H 
ENDROOT
BRANCH   2   5
HETATM    5  C4  UNK     0      19.611  35.649   2.664  0.00  0.00    -0.005 C 
HETATM    6 Br2  UNK     0      20.309  35.708   4.479  0.00  0.00    -0.096 Br
HETATM    7  H7  UNK     0      18.842  34.869   2.653  0.00  0.00     0.051 H 
HETATM    8  H8  UNK     0      19.139  36.618   2.477  0.00  0.00     0.051 H 
ENDBRANCH   2   5
TORSDOF 1
ENDMDL
MODEL 26
REMARK CAVERDOCK RESULT:      -2.6      0.000      0.000
REMARK CAVERDOCK CONSTRAINTS:       0.0      0.0      0.0      0.0
REMARK CAVERDOCK TUNNEL: 25     -2.6      2.1     26.1
REMARK  1 active torsions:
REMARK  status: ('A' for Active; 'I' for Inactive)
REMARK    1  A    between atoms: C3_3  and  C4_4 
ROOT
HETATM    1 Br1  UNK     0      21.425  36.701   1.453  0.00  0.00    -0.096 Br
HETATM    2  C3  UNK     0      20.619  34.998   1.941  0.00  0.00    -0.005 C 
HETATM    3  H5  UNK     0      21.164  34.224   1.392  0.00  0.00     0.051 H 
HETATM    4  H6  UNK     0      19.586  35.030   1.582  0.00  0.00     0.051 H 
ENDROOT
BRANCH   2   5
HETATM    5  C4  UNK     0      20.705  34.812   3.435  0.00  0.00    -0.005 C 
HETATM    6 Br2  UNK     0      20.103  36.433   4.327  0.00  0.00    -0.096 Br
HETATM    7  H7  UNK     0      21.730  34.633   3.776  0.00  0.00     0.051 H 
HETATM    8  H8  UNK     0      20.064  34.001   3.792  0.00  0.00     0.051 H 
ENDBRANCH   2   5
TORSDOF 1
ENDMDL
MODEL 27
REMARK CAVERDOCK RESULT:      -2.8      0.000      0.000
REMARK CAVERDOCK CONSTRAINTS:       0.0      0.0      0.0      0.0
REMARK CAVERDOCK TUNNEL: 26     -2.8      2.1     27.9
REMARK  1 active torsions:
REMARK  status: ('A' for Active; 'I' for Inactive)
REMARK    1  A    between atoms: C3_3  and  C4_4 
ROOT
HETATM    1 Br1  UNK     0      21.033  36.495   1.767  0.00  0.00    -0.096 Br
HETATM    2  C3  UNK     0      21.138  34.936   2.927  0.00  0.00    -0.005 C 
HETATM    3  H5  UNK     0      22.132  34.950   3.383  0.00  0.00     0.051 H 
HETATM    4  H6  UNK     0      21.056  34.059   2.276  0.00  0.00     0.051 H 
ENDROOT
BRANCH   2   5
HETATM    5  C4  UNK     0      20.035  34.997   3.953  0.00  0.00    -0.005 C 
HETATM    6 Br2  UNK     0      20.057  36.736   4.826  0.00  0.00    -0.096 Br
HETATM    7  H7  UNK     0      20.158  34.251   4.745  0.00  0.00     0.051 H 
HETATM    8  H8  UNK     0      19.043  34.883   3.506  0.00  0.00     0.051 H 
ENDBRANCH   2   5
TORSDOF 1
ENDMDL
MODEL 28
REMARK CAVERDOCK RESULT:      -2.8      0.000      0.000
REMARK CAVERDOCK CONSTRAINTS:       0.0      0.0      0.0      0.0
REMARK CAVERDOCK TUNNEL: 27     -2.8      2.1     28.3
REMARK  1 active torsions:
REMARK  status: ('A' for Active; 'I' for Inactive)
REMARK    1  A    between atoms: C3_3  and  C4_4 
ROOT
HETATM    1 Br1  UNK     0      21.113  36.350   1.817  0.00  0.00    -0.096 Br
HETATM    2  C3  UNK     0      21.144  35.040   3.256  0.00  0.00    -0.005 C 
HETATM    3  H5  UNK     0      22.073  35.203   3.809  0.00  0.00     0.051 H 
HETATM    4  H6  UNK     0      21.180  34.056   2.778  0.00  0.00     0.051 H 
ENDROOT
BRANCH   2   5
HETATM    5  C4  UNK     0      19.921  35.216   4.122  0.00  0.00    -0.005 C 
HETATM    6 Br2  UNK     0      20.200  36.705   5.343  0.00  0.00    -0.096 Br
HETATM    7  H7  UNK     0      19.721  34.338   4.744  0.00  0.00     0.051 H 
HETATM    8  H8  UNK     0      19.027  35.452   3.538  0.00  0.00     0.051 H 
ENDBRANCH   2   5
TORSDOF 1
ENDMDL
MODEL 29
REMARK CAVERDOCK RESULT:      -2.7      0.000      0.000
REMARK CAVERDOCK CONSTRAINTS:       0.0      0.0      0.0      0.0
REMARK CAVERDOCK TUNNEL: 28     -2.7      2.2     29.1
REMARK  1 active torsions:
REMARK  status: ('A' for Active; 'I' for Inactive)
REMARK    1  A    between atoms: C3_3  and  C4_4 
ROOT
HETATM    1 Br1  UNK     0      21.145  36.721   1.473  0.00  0.00    -0.096 Br
HETATM    2  C3  UNK     0      20.384  35.351   2.626  0.00  0.00    -0.005 C 
HETATM    3  H5  UNK     0      21.205  34.960   3.234  0.00  0.00     0.051 H 
HETATM    4  H6  UNK     0      20.020  34.557   1.966  0.00  0.00     0.051 H 
ENDROOT
BRANCH   2   5
HETATM    5  C4  UNK     0      19.284  35.953   3.464  0.00  0.00    -0.005 C 
HETATM    6 Br2  UNK     0      20.056  36.790   5.043  0.00  0.00    -0.096 Br
HETATM    7  H7  UNK     0      18.576  35.202   3.827  0.00  0.00     0.051 H 
HETATM    8  H8  UNK     0      18.735  36.734   2.932  0.00  0.00     0.051 H 
ENDBRANCH   2   5
TORSDOF 1
ENDMDL
MODEL 30
REMARK CAVERDOCK RESULT:      -2.7      0.000      0.000
REMARK CAVERDOCK CONSTRAINTS:       0.0      0.0      0.0      0.0
REMARK CAVERDOCK TUNNEL: 29     -2.7      2.2     30.4
REMARK  1 active torsions:
REMARK  status: ('A' for Active; 'I' for Inactive)
REMARK    1  A    between atoms: C3_3  and  C4_4 
ROOT
HETATM    1 Br1  UNK     0      21.312  36.644   1.329  0.00  0.00    -0.096 Br
HETATM    2  C3  UNK     0      20.314  35.675   2.690  0.00  0.00    -0.005 C 
HETATM    3  H5  UNK     0      20.118  34.678   2.285  0.00  0.00     0.051 H 
HETATM    4  H6  UNK     0      19.364  36.204   2.813  0.00  0.00     0.051 H 
ENDROOT
BRANCH   2   5
HETATM    5  C4  UNK     0      21.117  35.630   3.965  0.00  0.00    -0.005 C 
HETATM    6 Br2  UNK     0      20.124  36.509   5.389  0.00  0.00    -0.096 Br
HETATM    7  H7  UNK     0      22.070  36.161   3.878  0.00  0.00     0.051 H 
HETATM    8  H8  UNK     0      21.308  34.607   4.301  0.00  0.00     0.051 H 
ENDBRANCH   2   5
TORSDOF 1
ENDMDL
MODEL 31
REMARK CAVERDOCK RESULT:      -2.7      0.000      0.000
REMARK CAVERDOCK CONSTRAINTS:       0.0      0.0      0.0      0.0
REMARK CAVERDOCK TUNNEL: 30     -2.7      2.2     31.1
REMARK  1 active torsions:
REMARK  status: ('A' for Active; 'I' for Inactive)
REMARK    1  A    between atoms: C3_3  and  C4_4 
ROOT
HETATM    1 Br1  UNK     0      21.070  36.206   1.773  0.00  0.00    -0.096 Br
HETATM    2  C3  UNK     0      19.986  35.095   2.946  0.00  0.00    -0.005 C 
HETATM    3  H5  UNK     0      20.682  34.499   3.544  0.00  0.00     0.051 H 
HETATM    4  H6  UNK     0      19.411  34.428   2.297  0.00  0.00     0.051 H 
ENDROOT
BRANCH   2   5
HETATM    5  C4  UNK     0      19.104  35.974   3.797  0.00  0.00    -0.005 C 
HETATM    6 Br2  UNK     0      20.115  36.618   5.330  0.00  0.00    -0.096 Br
HETATM    7  H7  UNK     0      18.241  35.435   4.200  0.00  0.00     0.051 H 
HETATM    8  H8  UNK     0      18.753  36.858   3.258  0.00  0.00     0.051 H 
ENDBRANCH   2   5
TORSDOF 1
ENDMDL
MODEL 32
REMARK CAVERDOCK RESULT:      -2.8      0.000      0.000
REMARK CAVERDOCK CONSTRAINTS:       0.0      0.0      0.0      0.0
REMARK CAVERDOCK TUNNEL: 31     -2.8      2.3     32.4
REMARK  1 active torsions:
REMARK  status: ('A' for Active; 'I' for Inactive)
REMARK    1  A    between atoms: C3_3  and  C4_4 
ROOT
HETATM    1 Br1  UNK     0      20.105  36.473   5.108  0.00  0.00    -0.096 Br
HETATM    2  C3  UNK     0      20.350  35.012   3.845  0.00  0.00    -0.005 C 
HETATM    3  H5  UNK     0      19.805  34.154   4.248  0.00  0.00     0.051 H 
HETATM    4  H6  UNK     0      21.421  34.784   3.839  0.00  0.00     0.051 H 
ENDROOT
BRANCH   2   5
HETATM    5  C4  UNK     0      19.843  35.430   2.488  0.00  0.00    -0.005 C 
HETATM    6 Br2  UNK     0      21.145  36.602   1.641  0.00  0.00    -0.096 Br
HETATM    7  H7  UNK     0      18.908  35.997   2.548  0.00  0.00     0.051 H 
HETATM    8  H8  UNK     0      19.702  34.580   1.816  0.00  0.00     0.051 H 
ENDBRANCH   2   5
TORSDOF 1
ENDMDL
MODEL 33
REMARK CAVERDOCK RESULT:      -2.7      0.000      0.000
REMARK CAVERDOCK CONSTRAINTS:       0.0      0.0      0.0      0.0
REMARK CAVERDOCK TUNNEL: 32     -2.7      2.3     33.1
REMARK  1 active torsions:
REMARK  status: ('A' for Active; 'I' for Inactive)
REMARK    1  A    between atoms: C3_3  and  C4_4 
ROOT
HETATM    1 Br1  UNK     0      20.835  36.641   1.798  0.00  0.00    -0.096 Br
HETATM    2  C3  UNK     0      19.595  35.565   2.842  0.00  0.00    -0.005 C 
HETATM    3  H5  UNK     0      19.366  34.680   2.243  0.00  0.00     0.051 H 
HETATM    4  H6  UNK     0      18.686  36.164   2.957  0.00  0.00     0.051 H 
ENDROOT
BRANCH   2   5
HETATM    5  C4  UNK     0      20.225  35.216   4.167  0.00  0.00    -0.005 C 
HETATM    6 Br2  UNK     0      19.936  36.671   5.427  0.00  0.00    -0.096 Br
HETATM    7  H7  UNK     0      21.308  35.082   4.092  0.00  0.00     0.051 H 
HETATM    8  H8  UNK     0      19.784  34.321   4.615  0.00  0.00     0.051 H 
ENDBRANCH   2   5
TORSDOF 1
ENDMDL
MODEL 34
REMARK CAVERDOCK RESULT:      -2.8      0.000      0.000
REMARK CAVERDOCK CONSTRAINTS:       0.0      0.0      0.0      0.0
REMARK CAVERDOCK TUNNEL: 33     -2.8      2.3     34.1
REMARK  1 active torsions:
REMARK  status: ('A' for Active; 'I' for Inactive)
REMARK    1  A    between atoms: C3_3  and  C4_4 
ROOT
HETATM    1 Br1  UNK     0      20.919  34.856   3.031  0.00  0.00    -0.096 Br
HETATM    2  C3  UNK     0      19.296  35.889   2.743  0.00  0.00    -0.005 C 
HETATM    3  H5  UNK     0      18.666  35.302   2.069  0.00  0.00     0.051 H 
HETATM    4  H6  UNK     0      19.600  36.810   2.236  0.00  0.00     0.051 H 
ENDROOT
BRANCH   2   5
HETATM    5  C4  UNK     0      18.627  36.155   4.068  0.00  0.00    -0.005 C 
HETATM    6 Br2  UNK     0      19.923  36.911   5.308  0.00  0.00    -0.096 Br
HETATM    7  H7  UNK     0      18.248  35.241   4.536  0.00  0.00     0.051 H 
HETATM    8  H8  UNK     0      17.812  36.879   3.986  0.00  0.00     0.051 H 
ENDBRANCH   2   5
TORSDOF 1
ENDMDL
