MODEL 1
REMARK VINA RESULT:    -2.835      0.000      0.000
REMARK INTER + INTRA:          -3.001
REMARK INTER:                  -3.001
REMARK INTRA:                   0.000
REMARK UNBOUND:                 0.000
REMARK  1 active torsions:
REMARK  status: ('A' for Active; 'I' for Inactive)
REMARK    1  A    between atoms: C_3  and  C_4 
ROOT
HETATM    1 Br   UNK     0      19.161  37.021   5.238  0.00  0.00    -0.096 Br
HETATM    2  C   UNK     0      17.630  36.946   4.039  0.00  0.00     0.096 C 
ENDROOT
BRANCH   2   3
HETATM    3  C   UNK     0      18.103  36.658   2.637  0.00  0.00     0.096 C 
HETATM    4 Br   UNK     0      19.958  36.072   2.685  0.00  0.00    -0.096 Br
ENDBRANCH   2   3
TORSDOF 1
ENDMDL
