MODEL 1
REMARK VINA RESULT:    -2.828      0.000      0.000
REMARK INTER + INTRA:          -2.993
REMARK INTER:                  -2.993
REMARK INTRA:                   0.000
REMARK UNBOUND:                 0.000
REMARK  1 active torsions:
REMARK  status: ('A' for Active; 'I' for Inactive)
REMARK    1  A    between atoms: C_3  and  C_4 
ROOT
HETATM    1 Br   UNK     0      19.256  37.033   5.228  0.00  0.00    -0.096 Br
HETATM    2  C   UNK     0      17.681  36.971   4.087  0.00  0.00     0.096 C 
ENDROOT
BRANCH   2   3
HETATM    3  C   UNK     0      18.091  36.608   2.682  0.00  0.00     0.096 C 
HETATM    4 Br   UNK     0      19.968  36.094   2.667  0.00  0.00    -0.096 Br
ENDBRANCH   2   3
TORSDOF 1
ENDMDL
