MODEL 1
REMARK VINA RESULT:    -2.794      0.000      0.000
REMARK INTER + INTRA:          -2.958
REMARK INTER:                  -2.958
REMARK INTRA:                   0.000
REMARK UNBOUND:                 0.000
REMARK  1 active torsions:
REMARK  status: ('A' for Active; 'I' for Inactive)
REMARK    1  A    between atoms: C_3  and  C_4 
ROOT
HETATM    1 Br   UNK     0      19.767  37.133   5.164  0.00  0.00    -0.096 Br
HETATM    2  C   UNK     0      18.261  36.474   4.122  0.00  0.00     0.096 C 
ENDROOT
BRANCH   2   3
HETATM    3  C   UNK     0      18.615  36.498   2.656  0.00  0.00     0.096 C 
HETATM    4 Br   UNK     0      20.524  36.183   2.444  0.00  0.00    -0.096 Br
ENDBRANCH   2   3
TORSDOF 1
ENDMDL
