MODEL 1
REMARK VINA RESULT:    -1.790      0.000      0.000
REMARK INTER + INTRA:          -1.895
REMARK INTER:                  -1.895
REMARK INTRA:                   0.000
REMARK UNBOUND:                 0.000
REMARK  1 active torsions:
REMARK  status: ('A' for Active; 'I' for Inactive)
REMARK    1  A    between atoms: C_3  and  C_4 
ROOT
HETATM    1 Br   UNK     0      23.176  31.953  -4.225  0.00  0.00    -0.096 Br
HETATM    2  C   UNK     0      23.977  32.782  -2.657  0.00  0.00     0.096 C 
ENDROOT
BRANCH   2   3
HETATM    3  C   UNK     0      25.415  32.344  -2.536  0.00  0.00     0.096 C 
HETATM    4 Br   UNK     0      26.584  33.792  -3.105  0.00  0.00    -0.096 Br
ENDBRANCH   2   3
TORSDOF 1
ENDMDL
