MODEL 1
REMARK VINA RESULT:    -2.832      0.000      0.000
REMARK INTER + INTRA:          -2.997
REMARK INTER:                  -2.997
REMARK INTRA:                   0.000
REMARK UNBOUND:                 0.000
REMARK  1 active torsions:
REMARK  status: ('A' for Active; 'I' for Inactive)
REMARK    1  A    between atoms: C_3  and  C_4 
ROOT
HETATM    1 Br   UNK     0      19.256  37.014   5.209  0.00  0.00    -0.096 Br
HETATM    2  C   UNK     0      17.692  36.940   4.053  0.00  0.00     0.096 C 
ENDROOT
BRANCH   2   3
HETATM    3  C   UNK     0      18.126  36.641   2.640  0.00  0.00     0.096 C 
HETATM    4 Br   UNK     0      19.986  36.069   2.639  0.00  0.00    -0.096 Br
ENDBRANCH   2   3
TORSDOF 1
ENDMDL
