MODEL 1
REMARK VINA RESULT:     9.357      0.000      0.000
REMARK INTER + INTRA:           9.904
REMARK INTER:                   9.904
REMARK INTRA:                   0.000
REMARK UNBOUND:                 0.000
REMARK  1 active torsions:
REMARK  status: ('A' for Active; 'I' for Inactive)
REMARK    1  A    between atoms: C_3  and  C_4 
ROOT
HETATM    1 Br   UNK     0      17.515  36.886   4.036  0.00  0.00    -0.096 Br
HETATM    2  C   UNK     0      19.419  36.494   3.948  0.00  0.00     0.096 C 
ENDROOT
BRANCH   2   3
HETATM    3  C   UNK     0      19.711  35.695   2.702  0.00  0.00     0.096 C 
HETATM    4 Br   UNK     0      21.228  36.478   1.769  0.00  0.00    -0.096 Br
ENDBRANCH   2   3
TORSDOF 1
ENDMDL
