MODEL 1
REMARK VINA RESULT:    -2.821      0.000      0.000
REMARK INTER + INTRA:          -2.986
REMARK INTER:                  -2.986
REMARK INTRA:                   0.000
REMARK UNBOUND:                 0.000
REMARK  1 active torsions:
REMARK  status: ('A' for Active; 'I' for Inactive)
REMARK    1  A    between atoms: C_3  and  C_4 
ROOT
HETATM    1 Br   UNK     0      19.395  37.058   5.169  0.00  0.00    -0.096 Br
HETATM    2  C   UNK     0      17.798  36.847   4.078  0.00  0.00     0.096 C 
ENDROOT
BRANCH   2   3
HETATM    3  C   UNK     0      18.197  36.636   2.639  0.00  0.00     0.096 C 
HETATM    4 Br   UNK     0      19.951  35.797   2.568  0.00  0.00    -0.096 Br
ENDBRANCH   2   3
TORSDOF 1
ENDMDL
