MODEL 1
REMARK VINA RESULT:    -2.817      0.000      0.000
REMARK INTER + INTRA:          -2.982
REMARK INTER:                  -2.982
REMARK INTRA:                   0.000
REMARK UNBOUND:                 0.000
REMARK  1 active torsions:
REMARK  status: ('A' for Active; 'I' for Inactive)
REMARK    1  A    between atoms: C_3  and  C_4 
ROOT
HETATM    1 Br   UNK     0      19.075  36.995   5.271  0.00  0.00    -0.096 Br
HETATM    2  C   UNK     0      17.578  37.022   4.029  0.00  0.00     0.096 C 
ENDROOT
BRANCH   2   3
HETATM    3  C   UNK     0      18.060  36.641   2.651  0.00  0.00     0.096 C 
HETATM    4 Br   UNK     0      19.923  36.085   2.748  0.00  0.00    -0.096 Br
ENDBRANCH   2   3
TORSDOF 1
ENDMDL
