MODEL 1
REMARK VINA RESULT:    17.256      0.000      0.000
REMARK INTER + INTRA:          18.264
REMARK INTER:                  18.264
REMARK INTRA:                   0.000
REMARK UNBOUND:                 0.000
REMARK  1 active torsions:
REMARK  status: ('A' for Active; 'I' for Inactive)
REMARK    1  A    between atoms: C_3  and  C_4 
ROOT
HETATM    1 Br   UNK     0      17.399  36.919   2.231  0.00  0.00    -0.096 Br
HETATM    2  C   UNK     0      17.852  36.916   4.123  0.00  0.00     0.096 C 
ENDROOT
BRANCH   2   3
HETATM    3  C   UNK     0      19.294  36.508   4.294  0.00  0.00     0.096 C 
HETATM    4 Br   UNK     0      20.024  35.969   2.572  0.00  0.00    -0.096 Br
ENDBRANCH   2   3
TORSDOF 1
ENDMDL
