MODEL 1
REMARK VINA RESULT:    -2.660      0.000      0.000
REMARK INTER + INTRA:          -2.816
REMARK INTER:                  -2.816
REMARK INTRA:                   0.000
REMARK UNBOUND:                 0.000
REMARK  1 active torsions:
REMARK  status: ('A' for Active; 'I' for Inactive)
REMARK    1  A    between atoms: C_3  and  C_4 
ROOT
HETATM    1 Br   UNK     0      17.680  36.932   3.865  0.00  0.00    -0.096 Br
HETATM    2  C   UNK     0      19.564  36.443   3.857  0.00  0.00     0.096 C 
ENDROOT
BRANCH   2   3
HETATM    3  C   UNK     0      19.842  35.535   2.685  0.00  0.00     0.096 C 
HETATM    4 Br   UNK     0      21.282  36.285   1.612  0.00  0.00    -0.096 Br
ENDBRANCH   2   3
TORSDOF 1
ENDMDL
