MODEL 1
REMARK VINA RESULT:    -2.804      0.000      0.000
REMARK INTER + INTRA:          -2.968
REMARK INTER:                  -2.968
REMARK INTRA:                   0.000
REMARK UNBOUND:                 0.000
REMARK  1 active torsions:
REMARK  status: ('A' for Active; 'I' for Inactive)
REMARK    1  A    between atoms: C_3  and  C_4 
ROOT
HETATM    1 Br   UNK     0      19.768  37.116   5.172  0.00  0.00    -0.096 Br
HETATM    2  C   UNK     0      18.201  36.572   4.154  0.00  0.00     0.096 C 
ENDROOT
BRANCH   2   3
HETATM    3  C   UNK     0      18.554  36.499   2.690  0.00  0.00     0.096 C 
HETATM    4 Br   UNK     0      20.464  36.184   2.497  0.00  0.00    -0.096 Br
ENDBRANCH   2   3
TORSDOF 1
ENDMDL
