MODEL 1
REMARK VINA RESULT:    -2.813      0.000      0.000
REMARK INTER + INTRA:          -2.977
REMARK INTER:                  -2.977
REMARK INTRA:                   0.000
REMARK UNBOUND:                 0.000
REMARK  1 active torsions:
REMARK  status: ('A' for Active; 'I' for Inactive)
REMARK    1  A    between atoms: C_3  and  C_4 
ROOT
HETATM    1 Br   UNK     0      17.379  36.908   2.254  0.00  0.00    -0.096 Br
HETATM    2  C   UNK     0      17.758  36.981   4.162  0.00  0.00     0.096 C 
ENDROOT
BRANCH   2   3
HETATM    3  C   UNK     0      19.203  36.624   4.401  0.00  0.00     0.096 C 
HETATM    4 Br   UNK     0      20.035  36.123   2.714  0.00  0.00    -0.096 Br
ENDBRANCH   2   3
TORSDOF 1
ENDMDL
