MODEL 1
REMARK VINA RESULT:    -2.792      0.000      0.000
REMARK INTER + INTRA:          -2.955
REMARK INTER:                  -2.955
REMARK INTRA:                   0.000
REMARK UNBOUND:                 0.000
REMARK  1 active torsions:
REMARK  status: ('A' for Active; 'I' for Inactive)
REMARK    1  A    between atoms: C_3  and  C_4 
ROOT
HETATM    1 Br   UNK     0      19.776  37.151   5.158  0.00  0.00    -0.096 Br
HETATM    2  C   UNK     0      18.296  36.441   4.113  0.00  0.00     0.096 C 
ENDROOT
BRANCH   2   3
HETATM    3  C   UNK     0      18.653  36.478   2.648  0.00  0.00     0.096 C 
HETATM    4 Br   UNK     0      20.565  36.186   2.438  0.00  0.00    -0.096 Br
ENDBRANCH   2   3
TORSDOF 1
ENDMDL
