MODEL 1
REMARK VINA RESULT:    -1.801      0.000      0.000
REMARK INTER + INTRA:          -1.906
REMARK INTER:                  -1.906
REMARK INTRA:                   0.000
REMARK UNBOUND:                 0.000
REMARK  1 active torsions:
REMARK  status: ('A' for Active; 'I' for Inactive)
REMARK    1  A    between atoms: C_3  and  C_4 
ROOT
HETATM    1 Br   UNK     0      23.163  31.922  -4.194  0.00  0.00    -0.096 Br
HETATM    2  C   UNK     0      23.995  32.793  -2.665  0.00  0.00     0.096 C 
ENDROOT
BRANCH   2   3
HETATM    3  C   UNK     0      25.425  32.329  -2.540  0.00  0.00     0.096 C 
HETATM    4 Br   UNK     0      26.621  33.763  -3.088  0.00  0.00    -0.096 Br
ENDBRANCH   2   3
TORSDOF 1
ENDMDL
