MODEL 1
REMARK VINA RESULT:    -2.835      0.000      0.000
REMARK INTER + INTRA:          -3.001
REMARK INTER:                  -3.001
REMARK INTRA:                   0.000
REMARK UNBOUND:                 0.000
REMARK  1 active torsions:
REMARK  status: ('A' for Active; 'I' for Inactive)
REMARK    1  A    between atoms: C_3  and  C_4 
ROOT
HETATM    1 Br   UNK     0      19.194  37.019   5.233  0.00  0.00    -0.096 Br
HETATM    2  C   UNK     0      17.657  36.948   4.042  0.00  0.00     0.096 C 
ENDROOT
BRANCH   2   3
HETATM    3  C   UNK     0      18.121  36.641   2.640  0.00  0.00     0.096 C 
HETATM    4 Br   UNK     0      19.984  36.079   2.682  0.00  0.00    -0.096 Br
ENDBRANCH   2   3
TORSDOF 1
ENDMDL
