MODEL 1
REMARK VINA RESULT:    -1.780      0.000      0.000
REMARK INTER + INTRA:          -1.884
REMARK INTER:                  -1.884
REMARK INTRA:                   0.000
REMARK UNBOUND:                 0.000
REMARK  1 active torsions:
REMARK  status: ('A' for Active; 'I' for Inactive)
REMARK    1  A    between atoms: C_3  and  C_4 
ROOT
HETATM    1 Br   UNK     0      26.826  33.855  -3.086  0.00  0.00    -0.096 Br
HETATM    2  C   UNK     0      25.612  32.367  -2.773  0.00  0.00     0.096 C 
ENDROOT
BRANCH   2   3
HETATM    3  C   UNK     0      24.195  32.880  -2.710  0.00  0.00     0.096 C 
HETATM    4 Br   UNK     0      23.114  31.964  -4.044  0.00  0.00    -0.096 Br
ENDBRANCH   2   3
TORSDOF 1
ENDMDL
