MODEL 8
REMARK VINA RESULT:    -1.699      1.562      3.001
REMARK INTER + INTRA:          -1.798
REMARK INTER:                  -1.798
REMARK INTRA:                   0.000
REMARK UNBOUND:                 0.000
REMARK  1 active torsions:
REMARK  status: ('A' for Active; 'I' for Inactive)
REMARK    1  A    between atoms: C_3  and  C_4 
ROOT
HETATM    1 Br   UNK     0      18.869  36.874   2.851  0.00  0.00    -0.096 Br
HETATM    2  C   UNK     0      19.611  35.081   2.995  0.00  0.00     0.096 C 
ENDROOT
BRANCH   2   3
HETATM    3  C   UNK     0      20.410  34.767   1.756  0.00  0.00     0.096 C 
HETATM    4 Br   UNK     0      21.402  36.348   1.205  0.00  0.00    -0.096 Br
ENDBRANCH   2   3
TORSDOF 1
ENDMDL
