MODEL 1
REMARK VINA RESULT:    -3.298      0.000      0.000
REMARK INTER + INTRA:          -3.491
REMARK INTER:                  -3.491
REMARK INTRA:                   0.000
REMARK UNBOUND:                 0.000
REMARK  1 active torsions:
REMARK  status: ('A' for Active; 'I' for Inactive)
REMARK    1  A    between atoms: C_3  and  C_4 
ROOT
HETATM    1 Br   UNK     0      21.017  36.506   1.774  0.00  0.00    -0.096 Br
HETATM    2  C   UNK     0      19.745  35.369   2.711  0.00  0.00     0.096 C 
ENDROOT
BRANCH   2   3
HETATM    3  C   UNK     0      18.771  36.229   3.476  0.00  0.00     0.096 C 
HETATM    4 Br   UNK     0      17.429  36.934   2.256  0.00  0.00    -0.096 Br
ENDBRANCH   2   3
TORSDOF 1
ENDMDL
