MODEL 8
REMARK VINA RESULT:    -1.552      2.182      2.398
REMARK INTER + INTRA:          -1.643
REMARK INTER:                  -1.643
REMARK INTRA:                   0.000
REMARK UNBOUND:                 0.000
REMARK  1 active torsions:
REMARK  status: ('A' for Active; 'I' for Inactive)
REMARK    1  A    between atoms: C_3  and  C_4 
ROOT
HETATM    1 Br   UNK     0      21.285  36.958   1.516  0.00  0.00    -0.096 Br
HETATM    2  C   UNK     0      19.983  36.883   2.960  0.00  0.00     0.096 C 
ENDROOT
BRANCH   2   3
HETATM    3  C   UNK     0      19.533  35.458   3.158  0.00  0.00     0.096 C 
HETATM    4 Br   UNK     0      20.640  34.273   2.082  0.00  0.00    -0.096 Br
ENDBRANCH   2   3
TORSDOF 1
ENDMDL
