MODEL 3
REMARK VINA RESULT:    -3.282      1.688      2.799
REMARK INTER + INTRA:          -3.474
REMARK INTER:                  -3.474
REMARK INTRA:                   0.000
REMARK UNBOUND:                 0.000
REMARK  1 active torsions:
REMARK  status: ('A' for Active; 'I' for Inactive)
REMARK    1  A    between atoms: C_3  and  C_4 
ROOT
HETATM    1 Br   UNK     0      21.113  36.489   1.865  0.00  0.00    -0.096 Br
HETATM    2  C   UNK     0      19.730  35.376   2.662  0.00  0.00     0.096 C 
ENDROOT
BRANCH   2   3
HETATM    3  C   UNK     0      18.891  36.210   3.598  0.00  0.00     0.096 C 
HETATM    4 Br   UNK     0      17.351  36.911   2.637  0.00  0.00    -0.096 Br
ENDBRANCH   2   3
TORSDOF 1
ENDMDL
