MODEL 9
REMARK VINA RESULT:    -0.264      2.683      4.214
REMARK INTER + INTRA:          -0.279
REMARK INTER:                  -0.279
REMARK INTRA:                   0.000
REMARK UNBOUND:                 0.000
REMARK  1 active torsions:
REMARK  status: ('A' for Active; 'I' for Inactive)
REMARK    1  A    between atoms: C_3  and  C_4 
ROOT
HETATM    1 Br   UNK     0      20.619  36.291   2.766  0.00  0.00    -0.096 Br
HETATM    2  C   UNK     0      20.934  35.210   1.179  0.00  0.00     0.096 C 
ENDROOT
BRANCH   2   3
HETATM    3  C   UNK     0      21.640  36.042   0.137  0.00  0.00     0.096 C 
HETATM    4 Br   UNK     0      22.423  34.871  -1.206  0.00  0.00    -0.096 Br
ENDBRANCH   2   3
TORSDOF 1
ENDMDL
