MODEL 7
REMARK VINA RESULT:    -0.710      2.541      3.021
REMARK INTER + INTRA:          -0.752
REMARK INTER:                  -0.752
REMARK INTRA:                   0.000
REMARK UNBOUND:                 0.000
REMARK  1 active torsions:
REMARK  status: ('A' for Active; 'I' for Inactive)
REMARK    1  A    between atoms: C_3  and  C_4 
ROOT
HETATM    1 Br   UNK     0      22.122  35.023  -0.888  0.00  0.00    -0.096 Br
HETATM    2  C   UNK     0      21.343  36.036   0.579  0.00  0.00     0.096 C 
ENDROOT
BRANCH   2   3
HETATM    3  C   UNK     0      20.840  35.085   1.636  0.00  0.00     0.096 C 
HETATM    4 Br   UNK     0      19.912  36.088   3.022  0.00  0.00    -0.096 Br
ENDBRANCH   2   3
TORSDOF 1
ENDMDL
