MODEL 9
REMARK VINA RESULT:    -1.420      2.265      2.410
REMARK INTER + INTRA:          -1.503
REMARK INTER:                  -1.503
REMARK INTRA:                   0.000
REMARK UNBOUND:                 0.000
REMARK  1 active torsions:
REMARK  status: ('A' for Active; 'I' for Inactive)
REMARK    1  A    between atoms: C_3  and  C_4 
ROOT
HETATM    1 Br   UNK     0      20.760  34.322   2.142  0.00  0.00    -0.096 Br
HETATM    2  C   UNK     0      19.493  35.465   3.079  0.00  0.00     0.096 C 
ENDROOT
BRANCH   2   3
HETATM    3  C   UNK     0      19.429  36.808   2.397  0.00  0.00     0.096 C 
HETATM    4 Br   UNK     0      21.028  37.065   1.318  0.00  0.00    -0.096 Br
ENDBRANCH   2   3
TORSDOF 1
ENDMDL
