MODEL 3
REMARK VINA RESULT:    -3.292      1.822      2.819
REMARK INTER + INTRA:          -3.485
REMARK INTER:                  -3.485
REMARK INTRA:                   0.000
REMARK UNBOUND:                 0.000
REMARK  1 active torsions:
REMARK  status: ('A' for Active; 'I' for Inactive)
REMARK    1  A    between atoms: C_3  and  C_4 
ROOT
HETATM    1 Br   UNK     0      17.397  36.937   2.407  0.00  0.00    -0.096 Br
HETATM    2  C   UNK     0      18.803  36.219   3.544  0.00  0.00     0.096 C 
ENDROOT
BRANCH   2   3
HETATM    3  C   UNK     0      19.738  35.375   2.714  0.00  0.00     0.096 C 
HETATM    4 Br   UNK     0      21.039  36.523   1.833  0.00  0.00    -0.096 Br
ENDBRANCH   2   3
TORSDOF 1
ENDMDL
