REMARK  1 active torsions:
REMARK  status: ('A' for Active; 'I' for Inactive)
REMARK    1  A    between atoms: C_3  and  C_4 
ROOT
HETATM    1 Br   UNK     0      24.111  35.181  -0.243  0.00  0.00    -0.096 Br
HETATM    2  C   UNK     0      22.294  35.877  -0.271  0.00  0.00     0.096 C 
ENDROOT
BRANCH   2   3
HETATM    3  C   UNK     0      21.316  34.729  -0.271  0.00  0.00     0.096 C 
HETATM    4 Br   UNK     0      19.499  35.425  -0.243  0.00  0.00    -0.096 Br
ENDBRANCH   2   3
TORSDOF 1
