REMARK  1 active torsions:
REMARK  status: ('A' for Active; 'I' for Inactive)
REMARK    1  A    between atoms: C_3  and  C_4 
ROOT
HETATM    1 Br   UNK     0      23.407  35.221   1.458  0.00  0.00    -0.096 Br
HETATM    2  C   UNK     0      21.590  35.917   1.430  0.00  0.00     0.096 C 
ENDROOT
BRANCH   2   3
HETATM    3  C   UNK     0      20.612  34.769   1.430  0.00  0.00     0.096 C 
HETATM    4 Br   UNK     0      18.795  35.465   1.458  0.00  0.00    -0.096 Br
ENDBRANCH   2   3
TORSDOF 1
