REMARK  1 active torsions:
REMARK  status: ('A' for Active; 'I' for Inactive)
REMARK    1  A    between atoms: C_3  and  C_4 
ROOT
HETATM    1 Br   UNK     0      21.091  35.611   2.188  0.00  0.00    -0.096 Br
HETATM    2  C   UNK     0      19.723  36.805   2.890  0.00  0.00     0.096 C 
ENDROOT
BRANCH   2   3
HETATM    3  C   UNK     0      18.593  35.990   3.468  0.00  0.00     0.096 C 
HETATM    4 Br   UNK     0      17.295  37.178   4.299  0.00  0.00    -0.096 Br
ENDBRANCH   2   3
TORSDOF 1
