REMARK  1 active torsions:
REMARK  status: ('A' for Active; 'I' for Inactive)
REMARK    1  A    between atoms: C_3  and  C_4 
ROOT
HETATM    1 Br   UNK     0      18.479  36.714   4.313  0.00  0.00    -0.096 Br
HETATM    2  C   UNK     0      19.232  35.997   2.668  0.00  0.00     0.096 C 
ENDROOT
BRANCH   2   3
HETATM    3  C   UNK     0      20.693  36.362   2.582  0.00  0.00     0.096 C 
HETATM    4 Br   UNK     0      21.455  35.611   0.957  0.00  0.00    -0.096 Br
ENDBRANCH   2   3
TORSDOF 1
