REMARK  1 active torsions:
REMARK  status: ('A' for Active; 'I' for Inactive)
REMARK    1  A    between atoms: C_3  and  C_4 
ROOT
HETATM    1 Br   UNK     0      24.053  34.443  -2.026  0.00  0.00    -0.096 Br
HETATM    2  C   UNK     0      22.655  35.558  -1.257  0.00  0.00     0.096 C 
ENDROOT
BRANCH   2   3
HETATM    3  C   UNK     0      21.763  34.713  -0.383  0.00  0.00     0.096 C 
HETATM    4 Br   UNK     0      21.394  35.661   1.276  0.00  0.00    -0.096 Br
ENDBRANCH   2   3
TORSDOF 1
