REMARK  1 active torsions:
REMARK  status: ('A' for Active; 'I' for Inactive)
REMARK    1  A    between atoms: C_3  and  C_4 
ROOT
HETATM    1 Br   UNK     0      26.068  33.083  -2.524  0.00  0.00    -0.096 Br
HETATM    2  C   UNK     0      24.655  32.941  -3.854  0.00  0.00     0.096 C 
ENDROOT
BRANCH   2   3
HETATM    3  C   UNK     0      24.676  31.563  -4.465  0.00  0.00     0.096 C 
HETATM    4 Br   UNK     0      23.230  31.404  -5.758  0.00  0.00    -0.096 Br
ENDBRANCH   2   3
TORSDOF 1
