REMARK  1 active torsions:
REMARK  status: ('A' for Active; 'I' for Inactive)
REMARK    1  A    between atoms: C_3  and  C_4 
ROOT
HETATM    1 Br   UNK     0      22.963  35.001  -1.413  0.00  0.00    -0.096 Br
HETATM    2  C   UNK     0      21.810  36.056  -0.254  0.00  0.00     0.096 C 
ENDROOT
BRANCH   2   3
HETATM    3  C   UNK     0      21.106  35.145   0.719  0.00  0.00     0.096 C 
HETATM    4 Br   UNK     0      20.816  36.088   2.397  0.00  0.00    -0.096 Br
ENDBRANCH   2   3
TORSDOF 1
