REMARK  1 active torsions:
REMARK  status: ('A' for Active; 'I' for Inactive)
REMARK    1  A    between atoms: C_3  and  C_4 
ROOT
HETATM    1 Br   UNK     0      22.319  35.499  -1.129  0.00  0.00    -0.096 Br
HETATM    2  C   UNK     0      21.612  36.185   0.549  0.00  0.00     0.096 C 
ENDROOT
BRANCH   2   3
HETATM    3  C   UNK     0      20.775  35.121   1.214  0.00  0.00     0.096 C 
HETATM    4 Br   UNK     0      19.994  35.837   2.846  0.00  0.00    -0.096 Br
ENDBRANCH   2   3
TORSDOF 1
