MODEL 8
REMARK VINA RESULT:    -1.544      2.056      2.371
REMARK INTER + INTRA:          -1.634
REMARK INTER:                  -1.634
REMARK INTRA:                   0.000
REMARK UNBOUND:                 0.000
REMARK  1 active torsions:
REMARK  status: ('A' for Active; 'I' for Inactive)
REMARK    1  A    between atoms: C_3  and  C_4 
ROOT
HETATM    1 Br   UNK     0      20.601  34.296   2.000  0.00  0.00    -0.096 Br
HETATM    2  C   UNK     0      19.563  35.456   3.168  0.00  0.00     0.096 C 
ENDROOT
BRANCH   2   3
HETATM    3  C   UNK     0      20.102  36.863   3.087  0.00  0.00     0.096 C 
HETATM    4 Br   UNK     0      21.349  36.995   1.599  0.00  0.00    -0.096 Br
ENDBRANCH   2   3
TORSDOF 1
ENDMDL
