MODEL 4
REMARK VINA RESULT:    -3.278      1.706      2.846
REMARK INTER + INTRA:          -3.470
REMARK INTER:                  -3.470
REMARK INTRA:                   0.000
REMARK UNBOUND:                 0.000
REMARK  1 active torsions:
REMARK  status: ('A' for Active; 'I' for Inactive)
REMARK    1  A    between atoms: C_3  and  C_4 
ROOT
HETATM    1 Br   UNK     0      21.058  36.404   1.736  0.00  0.00    -0.096 Br
HETATM    2  C   UNK     0      19.759  35.342   2.722  0.00  0.00     0.096 C 
ENDROOT
BRANCH   2   3
HETATM    3  C   UNK     0      18.855  36.257   3.509  0.00  0.00     0.096 C 
HETATM    4 Br   UNK     0      17.456  36.946   2.344  0.00  0.00    -0.096 Br
ENDBRANCH   2   3
TORSDOF 1
ENDMDL
