MODEL 7
REMARK VINA RESULT:    -1.434      2.266      2.516
REMARK INTER + INTRA:          -1.517
REMARK INTER:                  -1.517
REMARK INTRA:                   0.000
REMARK UNBOUND:                 0.000
REMARK  1 active torsions:
REMARK  status: ('A' for Active; 'I' for Inactive)
REMARK    1  A    between atoms: C_3  and  C_4 
ROOT
HETATM    1 Br   UNK     0      18.889  36.444   3.043  0.00  0.00    -0.096 Br
HETATM    2  C   UNK     0      20.674  36.428   2.267  0.00  0.00     0.096 C 
ENDROOT
BRANCH   2   3
HETATM    3  C   UNK     0      20.900  35.118   1.555  0.00  0.00     0.096 C 
HETATM    4 Br   UNK     0      21.796  35.447  -0.141  0.00  0.00    -0.096 Br
ENDBRANCH   2   3
TORSDOF 1
ENDMDL
