MODEL 7
REMARK VINA RESULT:    -1.616      1.845      1.879
REMARK INTER + INTRA:          -1.711
REMARK INTER:                  -1.711
REMARK INTRA:                   0.000
REMARK UNBOUND:                 0.000
REMARK  1 active torsions:
REMARK  status: ('A' for Active; 'I' for Inactive)
REMARK    1  A    between atoms: C_3  and  C_4 
ROOT
HETATM    1 Br   UNK     0      18.912  36.010   4.449  0.00  0.00    -0.096 Br
HETATM    2  C   UNK     0      20.257  37.067   3.522  0.00  0.00     0.096 C 
ENDROOT
BRANCH   2   3
HETATM    3  C   UNK     0      21.320  36.152   2.966  0.00  0.00     0.096 C 
HETATM    4 Br   UNK     0      20.487  34.790   1.854  0.00  0.00    -0.096 Br
ENDBRANCH   2   3
TORSDOF 1
ENDMDL
