MODEL 3
REMARK VINA RESULT:    -3.295      1.710      1.710
REMARK INTER + INTRA:          -3.488
REMARK INTER:                  -3.488
REMARK INTRA:                   0.000
REMARK UNBOUND:                 0.000
REMARK  1 active torsions:
REMARK  status: ('A' for Active; 'I' for Inactive)
REMARK    1  A    between atoms: C_3  and  C_4 
ROOT
HETATM    1 Br   UNK     0      17.418  36.939   2.469  0.00  0.00    -0.096 Br
HETATM    2  C   UNK     0      18.810  36.163   3.586  0.00  0.00     0.096 C 
ENDROOT
BRANCH   2   3
HETATM    3  C   UNK     0      19.745  35.348   2.730  0.00  0.00     0.096 C 
HETATM    4 Br   UNK     0      21.014  36.530   1.847  0.00  0.00    -0.096 Br
ENDBRANCH   2   3
TORSDOF 1
ENDMDL
