REMARK  1 active torsions:
REMARK  status: ('A' for Active; 'I' for Inactive)
REMARK    1  A    between atoms: C_3  and  C_4 
ROOT
HETATM    1 Br   UNK     0      26.739  32.953  -2.670  0.00  0.00    -0.096 Br
HETATM    2  C   UNK     0      24.858  32.635  -3.054  0.00  0.00     0.096 C 
ENDROOT
BRANCH   2   3
HETATM    3  C   UNK     0      24.735  31.607  -4.150  0.00  0.00     0.096 C 
HETATM    4 Br   UNK     0      22.998  31.777  -5.009  0.00  0.00    -0.096 Br
ENDBRANCH   2   3
TORSDOF 1
