REMARK  1 active torsions:
REMARK  status: ('A' for Active; 'I' for Inactive)
REMARK    1  A    between atoms: C_3  and  C_4 
ROOT
HETATM    1 Br   UNK     0      26.593  32.543  -2.297  0.00  0.00    -0.096 Br
HETATM    2  C   UNK     0      24.763  32.687  -2.940  0.00  0.00     0.096 C 
ENDROOT
BRANCH   2   3
HETATM    3  C   UNK     0      24.480  31.566  -3.907  0.00  0.00     0.096 C 
HETATM    4 Br   UNK     0      22.850  31.958  -4.897  0.00  0.00    -0.096 Br
ENDBRANCH   2   3
TORSDOF 1
