REMARK  1 active torsions:
REMARK  status: ('A' for Active; 'I' for Inactive)
REMARK    1  A    between atoms: C_3  and  C_4 
ROOT
HETATM    1 Br   UNK     0      21.208  35.328   1.800  0.00  0.00    -0.096 Br
HETATM    2  C   UNK     0      20.157  36.555   2.885  0.00  0.00     0.096 C 
ENDROOT
BRANCH   2   3
HETATM    3  C   UNK     0      19.018  35.807   3.528  0.00  0.00     0.096 C 
HETATM    4 Br   UNK     0      17.960  37.036   4.605  0.00  0.00    -0.096 Br
ENDBRANCH   2   3
TORSDOF 1
