REMARK  1 active torsions:
REMARK  status: ('A' for Active; 'I' for Inactive)
REMARK    1  A    between atoms: C_3  and  C_4 
ROOT
HETATM    1 Br   UNK     0      21.873  35.139  -0.056  0.00  0.00    -0.096 Br
HETATM    2  C   UNK     0      21.033  36.128   1.395  0.00  0.00     0.096 C 
ENDROOT
BRANCH   2   3
HETATM    3  C   UNK     0      20.534  35.162   2.439  0.00  0.00     0.096 C 
HETATM    4 Br   UNK     0      19.283  36.072   3.620  0.00  0.00    -0.096 Br
ENDBRANCH   2   3
TORSDOF 1
