REMARK  1 active torsions:
REMARK  status: ('A' for Active; 'I' for Inactive)
REMARK    1  A    between atoms: C_3  and  C_4 
ROOT
HETATM    1 Br   UNK     0      24.561  33.113  -2.450  0.00  0.00    -0.096 Br
HETATM    2  C   UNK     0      23.521  34.661  -1.893  0.00  0.00     0.096 C 
ENDROOT
BRANCH   2   3
HETATM    3  C   UNK     0      22.166  34.209  -1.413  0.00  0.00     0.096 C 
HETATM    4 Br   UNK     0      21.683  35.196   0.193  0.00  0.00    -0.096 Br
ENDBRANCH   2   3
TORSDOF 1
