MODEL 1
REMARK VINA RESULT:    -3.286      0.000      0.000
REMARK INTER + INTRA:          -3.478
REMARK INTER:                  -3.478
REMARK INTRA:                   0.000
REMARK UNBOUND:                 0.000
REMARK  1 active torsions:
REMARK  status: ('A' for Active; 'I' for Inactive)
REMARK    1  A    between atoms: C_3  and  C_4 
ROOT
HETATM    1 Br   UNK     0      21.042  36.516   1.789  0.00  0.00    -0.096 Br
HETATM    2  C   UNK     0      19.802  35.301   2.668  0.00  0.00     0.096 C 
ENDROOT
BRANCH   2   3
HETATM    3  C   UNK     0      18.855  36.092   3.536  0.00  0.00     0.096 C 
HETATM    4 Br   UNK     0      17.517  36.955   2.417  0.00  0.00    -0.096 Br
ENDBRANCH   2   3
TORSDOF 1
ENDMDL
