MODEL 1
REMARK VINA RESULT:    -2.105      0.000      0.000
REMARK INTER + INTRA:          -2.228
REMARK INTER:                  -2.228
REMARK INTRA:                   0.000
REMARK UNBOUND:                 0.000
REMARK  1 active torsions:
REMARK  status: ('A' for Active; 'I' for Inactive)
REMARK    1  A    between atoms: C_3  and  C_4 
ROOT
HETATM    1 Br   UNK     0      21.290  36.751   1.140  0.00  0.00    -0.096 Br
HETATM    2  C   UNK     0      20.871  35.021   1.927  0.00  0.00     0.096 C 
ENDROOT
BRANCH   2   3
HETATM    3  C   UNK     0      19.815  35.195   2.990  0.00  0.00     0.096 C 
HETATM    4 Br   UNK     0      18.633  36.659   2.496  0.00  0.00    -0.096 Br
ENDBRANCH   2   3
TORSDOF 1
ENDMDL
