MODEL 1
REMARK VINA RESULT:     7.112      0.000      0.000
REMARK INTER + INTRA:           7.527
REMARK INTER:                   7.527
REMARK INTRA:                   0.000
REMARK UNBOUND:                 0.000
REMARK  1 active torsions:
REMARK  status: ('A' for Active; 'I' for Inactive)
REMARK    1  A    between atoms: C_3  and  C_4 
ROOT
HETATM    1 Br   UNK     0      18.064  37.001   2.490  0.00  0.00    -0.096 Br
HETATM    2  C   UNK     0      19.195  35.745   3.454  0.00  0.00     0.096 C 
ENDROOT
BRANCH   2   3
HETATM    3  C   UNK     0      20.195  35.137   2.503  0.00  0.00     0.096 C 
HETATM    4 Br   UNK     0      21.086  36.551   1.507  0.00  0.00    -0.096 Br
ENDBRANCH   2   3
TORSDOF 1
ENDMDL
