MODEL 1
REMARK VINA RESULT:    -3.292      0.000      0.000
REMARK INTER + INTRA:          -3.484
REMARK INTER:                  -3.484
REMARK INTRA:                   0.000
REMARK UNBOUND:                 0.000
REMARK  1 active torsions:
REMARK  status: ('A' for Active; 'I' for Inactive)
REMARK    1  A    between atoms: C_3  and  C_4 
ROOT
HETATM    1 Br   UNK     0      19.737  37.138   5.190  0.00  0.00    -0.096 Br
HETATM    2  C   UNK     0      18.742  35.998   3.967  0.00  0.00     0.096 C 
ENDROOT
BRANCH   2   3
HETATM    3  C   UNK     0      19.047  36.399   2.545  0.00  0.00     0.096 C 
HETATM    4 Br   UNK     0      20.946  36.155   2.196  0.00  0.00    -0.096 Br
ENDBRANCH   2   3
TORSDOF 1
ENDMDL
