MODEL 1
REMARK VINA RESULT:    -3.315      0.000      0.000
REMARK INTER + INTRA:          -3.509
REMARK INTER:                  -3.509
REMARK INTRA:                   0.000
REMARK UNBOUND:                 0.000
REMARK  1 active torsions:
REMARK  status: ('A' for Active; 'I' for Inactive)
REMARK    1  A    between atoms: C_3  and  C_4 
ROOT
HETATM    1 Br   UNK     0      20.997  36.529   1.648  0.00  0.00    -0.096 Br
HETATM    2  C   UNK     0      19.779  35.448   2.713  0.00  0.00     0.096 C 
ENDROOT
BRANCH   2   3
HETATM    3  C   UNK     0      18.738  36.338   3.344  0.00  0.00     0.096 C 
HETATM    4 Br   UNK     0      19.396  36.996   5.053  0.00  0.00    -0.096 Br
ENDBRANCH   2   3
TORSDOF 1
ENDMDL
