MODEL 1
REMARK VINA RESULT:    -2.255      0.000      0.000
REMARK INTER + INTRA:          -2.387
REMARK INTER:                  -2.387
REMARK INTRA:                   0.000
REMARK UNBOUND:                 0.000
REMARK  1 active torsions:
REMARK  status: ('A' for Active; 'I' for Inactive)
REMARK    1  A    between atoms: C_3  and  C_4 
ROOT
HETATM    1 Br   UNK     0      18.575  36.883   2.751  0.00  0.00    -0.096 Br
HETATM    2  C   UNK     0      19.646  35.305   3.140  0.00  0.00     0.096 C 
ENDROOT
BRANCH   2   3
HETATM    3  C   UNK     0      20.627  35.074   2.018  0.00  0.00     0.096 C 
HETATM    4 Br   UNK     0      21.217  36.787   1.309  0.00  0.00    -0.096 Br
ENDBRANCH   2   3
TORSDOF 1
ENDMDL
