MODEL 1
REMARK VINA RESULT:    -3.324      0.000      0.000
REMARK INTER + INTRA:          -3.518
REMARK INTER:                  -3.518
REMARK INTRA:                   0.000
REMARK UNBOUND:                 0.000
REMARK  1 active torsions:
REMARK  status: ('A' for Active; 'I' for Inactive)
REMARK    1  A    between atoms: C_3  and  C_4 
ROOT
HETATM    1 Br   UNK     0      19.623  37.053   5.298  0.00  0.00    -0.096 Br
HETATM    2  C   UNK     0      18.712  36.389   3.712  0.00  0.00     0.096 C 
ENDROOT
BRANCH   2   3
HETATM    3  C   UNK     0      19.620  35.441   2.970  0.00  0.00     0.096 C 
HETATM    4 Br   UNK     0      20.927  36.458   1.949  0.00  0.00    -0.096 Br
ENDBRANCH   2   3
TORSDOF 1
ENDMDL
