MODEL 1
REMARK VINA RESULT:    -1.998      0.000      0.000
REMARK INTER + INTRA:          -2.114
REMARK INTER:                  -2.114
REMARK INTRA:                   0.000
REMARK UNBOUND:                 0.000
REMARK  1 active torsions:
REMARK  status: ('A' for Active; 'I' for Inactive)
REMARK    1  A    between atoms: C_3  and  C_4 
ROOT
HETATM    1 Br   UNK     0      23.312  31.910  -4.307  0.00  0.00    -0.096 Br
HETATM    2  C   UNK     0      23.840  32.821  -2.670  0.00  0.00     0.096 C 
ENDROOT
BRANCH   2   3
HETATM    3  C   UNK     0      25.255  32.440  -2.317  0.00  0.00     0.096 C 
HETATM    4 Br   UNK     0      26.485  33.754  -3.056  0.00  0.00    -0.096 Br
ENDBRANCH   2   3
TORSDOF 1
ENDMDL
