MODEL 1
REMARK VINA RESULT:    -0.696      0.000      0.000
REMARK INTER + INTRA:          -0.737
REMARK INTER:                  -0.737
REMARK INTRA:                   0.000
REMARK UNBOUND:                 0.000
REMARK  1 active torsions:
REMARK  status: ('A' for Active; 'I' for Inactive)
REMARK    1  A    between atoms: C_3  and  C_4 
ROOT
HETATM    1 Br   UNK     0      17.399  36.885   2.448  0.00  0.00    -0.096 Br
HETATM    2  C   UNK     0      18.871  36.153   3.490  0.00  0.00     0.096 C 
ENDROOT
BRANCH   2   3
HETATM    3  C   UNK     0      19.771  35.346   2.588  0.00  0.00     0.096 C 
HETATM    4 Br   UNK     0      21.172  36.493   1.875  0.00  0.00    -0.096 Br
ENDBRANCH   2   3
TORSDOF 1
ENDMDL
