MODEL 1
REMARK VINA RESULT:    -2.004      0.000      0.000
REMARK INTER + INTRA:          -2.121
REMARK INTER:                  -2.121
REMARK INTRA:                   0.000
REMARK UNBOUND:                 0.000
REMARK  1 active torsions:
REMARK  status: ('A' for Active; 'I' for Inactive)
REMARK    1  A    between atoms: C_3  and  C_4 
ROOT
HETATM    1 Br   UNK     0      26.091  31.494  -1.154  0.00  0.00    -0.096 Br
HETATM    2  C   UNK     0      26.869  32.890  -2.264  0.00  0.00     0.096 C 
ENDROOT
BRANCH   2   3
HETATM    3  C   UNK     0      25.816  33.437  -3.196  0.00  0.00     0.096 C 
HETATM    4 Br   UNK     0      24.051  32.939  -2.543  0.00  0.00    -0.096 Br
ENDBRANCH   2   3
TORSDOF 1
ENDMDL
