MODEL 1
REMARK VINA RESULT:    -2.436      0.000      0.000
REMARK INTER + INTRA:          -2.579
REMARK INTER:                  -2.579
REMARK INTRA:                   0.000
REMARK UNBOUND:                 0.000
REMARK  1 active torsions:
REMARK  status: ('A' for Active; 'I' for Inactive)
REMARK    1  A    between atoms: C_3  and  C_4 
ROOT
HETATM    1 Br   UNK     0      18.488  37.055   2.411  0.00  0.00    -0.096 Br
HETATM    2  C   UNK     0      19.423  35.565   3.243  0.00  0.00     0.096 C 
ENDROOT
BRANCH   2   3
HETATM    3  C   UNK     0      20.359  34.937   2.241  0.00  0.00     0.096 C 
HETATM    4 Br   UNK     0      21.431  36.324   1.397  0.00  0.00    -0.096 Br
ENDBRANCH   2   3
TORSDOF 1
ENDMDL
