MODEL 1
REMARK VINA RESULT:    -3.347      0.000      0.000
REMARK INTER + INTRA:          -3.542
REMARK INTER:                  -3.542
REMARK INTRA:                   0.000
REMARK UNBOUND:                 0.000
REMARK  1 active torsions:
REMARK  status: ('A' for Active; 'I' for Inactive)
REMARK    1  A    between atoms: C_3  and  C_4 
ROOT
HETATM    1 Br   UNK     0      20.964  36.516   1.875  0.00  0.00    -0.096 Br
HETATM    2  C   UNK     0      19.663  35.489   2.894  0.00  0.00     0.096 C 
ENDROOT
BRANCH   2   3
HETATM    3  C   UNK     0      18.679  36.428   3.545  0.00  0.00     0.096 C 
HETATM    4 Br   UNK     0      19.389  37.030   5.253  0.00  0.00    -0.096 Br
ENDBRANCH   2   3
TORSDOF 1
ENDMDL
