MODEL 1
REMARK VINA RESULT:    -3.093      0.000      0.000
REMARK INTER + INTRA:          -3.274
REMARK INTER:                  -3.274
REMARK INTRA:                   0.000
REMARK UNBOUND:                 0.000
REMARK  1 active torsions:
REMARK  status: ('A' for Active; 'I' for Inactive)
REMARK    1  A    between atoms: C_3  and  C_4 
ROOT
HETATM    1 Br   UNK     0      17.850  37.003   2.252  0.00  0.00    -0.096 Br
HETATM    2  C   UNK     0      19.006  35.969   3.428  0.00  0.00     0.096 C 
ENDROOT
BRANCH   2   3
HETATM    3  C   UNK     0      20.028  35.228   2.603  0.00  0.00     0.096 C 
HETATM    4 Br   UNK     0      21.200  36.507   1.721  0.00  0.00    -0.096 Br
ENDBRANCH   2   3
TORSDOF 1
ENDMDL
