MODEL 1
REMARK VINA RESULT:    -1.962      0.000      0.000
REMARK INTER + INTRA:          -2.077
REMARK INTER:                  -2.077
REMARK INTRA:                   0.000
REMARK UNBOUND:                 0.000
REMARK  1 active torsions:
REMARK  status: ('A' for Active; 'I' for Inactive)
REMARK    1  A    between atoms: C_3  and  C_4 
ROOT
HETATM    1 Br   UNK     0      23.912  32.943  -2.564  0.00  0.00    -0.096 Br
HETATM    2  C   UNK     0      25.659  33.101  -3.406  0.00  0.00     0.096 C 
ENDROOT
BRANCH   2   3
HETATM    3  C   UNK     0      26.736  32.865  -2.377  0.00  0.00     0.096 C 
HETATM    4 Br   UNK     0      26.161  31.474  -1.144  0.00  0.00    -0.096 Br
ENDBRANCH   2   3
TORSDOF 1
ENDMDL
