REMARK  1 active torsions:
REMARK  status: ('A' for Active; 'I' for Inactive)
REMARK    1  A    between atoms: C_3  and  C_4 
ROOT
HETATM    1 Br   UNK     0      21.528  35.603   2.143  0.00  0.00    -0.096 Br
HETATM    2  C   UNK     0      20.112  36.752   2.820  0.00  0.00     0.096 C 
ENDROOT
BRANCH   2   3
HETATM    3  C   UNK     0      19.067  35.911   3.508  0.00  0.00     0.096 C 
HETATM    4 Br   UNK     0      17.750  37.070   4.350  0.00  0.00    -0.096 Br
ENDBRANCH   2   3
TORSDOF 1
