REMARK  1 active torsions:
REMARK  status: ('A' for Active; 'I' for Inactive)
REMARK    1  A    between atoms: C_3  and  C_4 
ROOT
HETATM    1 Br   UNK     0      18.070  36.986   4.679  0.00  0.00    -0.096 Br
HETATM    2  C   UNK     0      18.685  36.454   2.911  0.00  0.00     0.096 C 
ENDROOT
BRANCH   2   3
HETATM    3  C   UNK     0      20.193  36.454   2.883  0.00  0.00     0.096 C 
HETATM    4 Br   UNK     0      20.820  35.068   1.669  0.00  0.00    -0.096 Br
ENDBRANCH   2   3
TORSDOF 1
