REMARK  1 active torsions:
REMARK  status: ('A' for Active; 'I' for Inactive)
REMARK    1  A    between atoms: C_3  and  C_4 
ROOT
HETATM    1 Br   UNK     0      21.490  31.507  -5.257  0.00  0.00    -0.096 Br
HETATM    2  C   UNK     0      22.060  32.422  -3.638  0.00  0.00     0.096 C 
ENDROOT
BRANCH   2   3
HETATM    3  C   UNK     0      23.206  31.667  -3.011  0.00  0.00     0.096 C 
HETATM    4 Br   UNK     0      24.329  32.903  -2.014  0.00  0.00    -0.096 Br
ENDBRANCH   2   3
TORSDOF 1
