REMARK  1 active torsions:
REMARK  status: ('A' for Active; 'I' for Inactive)
REMARK    1  A    between atoms: C_3  and  C_4 
ROOT
HETATM    1 Br   UNK     0      23.183  33.777  -1.897  0.00  0.00    -0.096 Br
HETATM    2  C   UNK     0      22.339  35.266  -0.972  0.00  0.00     0.096 C 
ENDROOT
BRANCH   2   3
HETATM    3  C   UNK     0      21.535  34.745   0.193  0.00  0.00     0.096 C 
HETATM    4 Br   UNK     0      21.150  36.205   1.421  0.00  0.00    -0.096 Br
ENDBRANCH   2   3
TORSDOF 1
