REMARK  1 active torsions:
REMARK  status: ('A' for Active; 'I' for Inactive)
REMARK    1  A    between atoms: C_3  and  C_4 
ROOT
HETATM    1 Br   UNK     0      22.273  34.815  -0.722  0.00  0.00    -0.096 Br
HETATM    2  C   UNK     0      23.062  33.940  -2.271  0.00  0.00     0.096 C 
ENDROOT
BRANCH   2   3
HETATM    3  C   UNK     0      24.237  33.104  -1.831  0.00  0.00     0.096 C 
HETATM    4 Br   UNK     0      24.818  31.976  -3.306  0.00  0.00    -0.096 Br
ENDBRANCH   2   3
TORSDOF 1
