REMARK  1 active torsions:
REMARK  status: ('A' for Active; 'I' for Inactive)
REMARK    1  A    between atoms: C_3  and  C_4 
ROOT
HETATM    1 Br   UNK     0      21.393  35.744   2.212  0.00  0.00    -0.096 Br
HETATM    2  C   UNK     0      19.894  36.882   2.706  0.00  0.00     0.096 C 
ENDROOT
BRANCH   2   3
HETATM    3  C   UNK     0      18.715  36.023   3.089  0.00  0.00     0.096 C 
HETATM    4 Br   UNK     0      17.300  37.147   3.810  0.00  0.00    -0.096 Br
ENDBRANCH   2   3
TORSDOF 1
