REMARK  1 active torsions:
REMARK  status: ('A' for Active; 'I' for Inactive)
REMARK    1  A    between atoms: C_3  and  C_4 
ROOT
HETATM    1 Br   UNK     0      21.470  35.793   2.240  0.00  0.00    -0.096 Br
HETATM    2  C   UNK     0      19.863  36.809   2.657  0.00  0.00     0.096 C 
ENDROOT
BRANCH   2   3
HETATM    3  C   UNK     0      18.749  35.859   3.018  0.00  0.00     0.096 C 
HETATM    4 Br   UNK     0      17.149  36.876   3.459  0.00  0.00    -0.096 Br
ENDBRANCH   2   3
TORSDOF 1
