REMARK  1 active torsions:
REMARK  status: ('A' for Active; 'I' for Inactive)
REMARK    1  A    between atoms: C_3  and  C_4 
ROOT
HETATM    1 Br   UNK     0      26.205  32.591  -2.459  0.00  0.00    -0.096 Br
HETATM    2  C   UNK     0      26.331  30.729  -1.905  0.00  0.00     0.096 C 
ENDROOT
BRANCH   2   3
HETATM    3  C   UNK     0      27.704  30.199  -2.232  0.00  0.00     0.096 C 
HETATM    4 Br   UNK     0      28.182  28.807  -0.960  0.00  0.00    -0.096 Br
ENDBRANCH   2   3
TORSDOF 1
