REMARK  1 active torsions:
REMARK  status: ('A' for Active; 'I' for Inactive)
REMARK    1  A    between atoms: C_3  and  C_4 
ROOT
HETATM    1 Br   UNK     0      21.378  35.615   1.958  0.00  0.00    -0.096 Br
HETATM    2  C   UNK     0      20.021  36.792   2.707  0.00  0.00     0.096 C 
ENDROOT
BRANCH   2   3
HETATM    3  C   UNK     0      18.918  35.963   3.316  0.00  0.00     0.096 C 
HETATM    4 Br   UNK     0      17.695  37.125   4.286  0.00  0.00    -0.096 Br
ENDBRANCH   2   3
TORSDOF 1
