REMARK  1 active torsions:
REMARK  status: ('A' for Active; 'I' for Inactive)
REMARK    1  A    between atoms: C_3  and  C_4 
ROOT
HETATM    1 Br   UNK     0      21.382  35.658   2.242  0.00  0.00    -0.096 Br
HETATM    2  C   UNK     0      19.990  36.846   2.904  0.00  0.00     0.096 C 
ENDROOT
BRANCH   2   3
HETATM    3  C   UNK     0      18.817  36.027   3.383  0.00  0.00     0.096 C 
HETATM    4 Br   UNK     0      17.478  37.206   4.160  0.00  0.00    -0.096 Br
ENDBRANCH   2   3
TORSDOF 1
