REMARK  1 active torsions:
REMARK  status: ('A' for Active; 'I' for Inactive)
REMARK    1  A    between atoms: C_3  and  C_4 
ROOT
HETATM    1 Br   UNK     0      21.025  35.252   1.783  0.00  0.00    -0.096 Br
HETATM    2  C   UNK     0      19.989  36.579   2.761  0.00  0.00     0.096 C 
ENDROOT
BRANCH   2   3
HETATM    3  C   UNK     0      18.940  35.884   3.593  0.00  0.00     0.096 C 
HETATM    4 Br   UNK     0      17.700  37.202   4.307  0.00  0.00    -0.096 Br
ENDBRANCH   2   3
TORSDOF 1
