REMARK  1 active torsions:
REMARK  status: ('A' for Active; 'I' for Inactive)
REMARK    1  A    between atoms: C_3  and  C_4 
ROOT
HETATM    1 Br   UNK     0      21.231  35.353   1.814  0.00  0.00    -0.096 Br
HETATM    2  C   UNK     0      20.165  36.655   2.792  0.00  0.00     0.096 C 
ENDROOT
BRANCH   2   3
HETATM    3  C   UNK     0      18.985  35.963   3.425  0.00  0.00     0.096 C 
HETATM    4 Br   UNK     0      17.942  37.257   4.439  0.00  0.00    -0.096 Br
ENDBRANCH   2   3
TORSDOF 1
