REMARK  1 active torsions:
REMARK  status: ('A' for Active; 'I' for Inactive)
REMARK    1  A    between atoms: C_3  and  C_4 
ROOT
HETATM    1 Br   UNK     0      18.072  36.983   4.677  0.00  0.00    -0.096 Br
HETATM    2  C   UNK     0      18.693  36.447   2.912  0.00  0.00     0.096 C 
ENDROOT
BRANCH   2   3
HETATM    3  C   UNK     0      20.201  36.441   2.891  0.00  0.00     0.096 C 
HETATM    4 Br   UNK     0      20.827  35.055   1.676  0.00  0.00    -0.096 Br
ENDBRANCH   2   3
TORSDOF 1
