REMARK  1 active torsions:
REMARK  status: ('A' for Active; 'I' for Inactive)
REMARK    1  A    between atoms: C_3  and  C_4 
ROOT
HETATM    1 Br   UNK     0      21.813  35.326   0.303  0.00  0.00    -0.096 Br
HETATM    2  C   UNK     0      20.981  36.475   1.635  0.00  0.00     0.096 C 
ENDROOT
BRANCH   2   3
HETATM    3  C   UNK     0      20.535  35.640   2.809  0.00  0.00     0.096 C 
HETATM    4 Br   UNK     0      18.871  36.358   3.519  0.00  0.00    -0.096 Br
ENDBRANCH   2   3
TORSDOF 1
