REMARK  1 active torsions:
REMARK  status: ('A' for Active; 'I' for Inactive)
REMARK    1  A    between atoms: C_3  and  C_4 
ROOT
HETATM    1 Br   UNK     0      21.154  35.425   2.029  0.00  0.00    -0.096 Br
HETATM    2  C   UNK     0      20.006  36.724   2.913  0.00  0.00     0.096 C 
ENDROOT
BRANCH   2   3
HETATM    3  C   UNK     0      18.897  36.001   3.638  0.00  0.00     0.096 C 
HETATM    4 Br   UNK     0      17.836  37.285   4.644  0.00  0.00    -0.096 Br
ENDBRANCH   2   3
TORSDOF 1
