REMARK  1 active torsions:
REMARK  status: ('A' for Active; 'I' for Inactive)
REMARK    1  A    between atoms: C_3  and  C_4 
ROOT
HETATM    1 Br   UNK     0      24.919  34.687  -0.846  0.00  0.00    -0.096 Br
HETATM    2  C   UNK     0      23.102  35.383  -0.874  0.00  0.00     0.096 C 
ENDROOT
BRANCH   2   3
HETATM    3  C   UNK     0      22.124  34.235  -0.874  0.00  0.00     0.096 C 
HETATM    4 Br   UNK     0      20.307  34.931  -0.846  0.00  0.00    -0.096 Br
ENDBRANCH   2   3
TORSDOF 1
