REMARK  1 active torsions:
REMARK  status: ('A' for Active; 'I' for Inactive)
REMARK    1  A    between atoms: C_3  and  C_4 
ROOT
HETATM    1 Br   UNK     0      21.208  35.574   2.237  0.00  0.00    -0.096 Br
HETATM    2  C   UNK     0      19.973  36.817   3.083  0.00  0.00     0.096 C 
ENDROOT
BRANCH   2   3
HETATM    3  C   UNK     0      18.874  36.045   3.768  0.00  0.00     0.096 C 
HETATM    4 Br   UNK     0      17.732  37.277   4.752  0.00  0.00    -0.096 Br
ENDBRANCH   2   3
TORSDOF 1
