REMARK  1 active torsions:
REMARK  status: ('A' for Active; 'I' for Inactive)
REMARK    1  A    between atoms: C_3  and  C_4 
ROOT
HETATM    1 Br   UNK     0      23.778  33.029  -1.859  0.00  0.00    -0.096 Br
HETATM    2  C   UNK     0      24.766  32.268  -3.353  0.00  0.00     0.096 C 
ENDROOT
BRANCH   2   3
HETATM    3  C   UNK     0      23.897  31.265  -4.071  0.00  0.00     0.096 C 
HETATM    4 Br   UNK     0      22.559  32.204  -5.126  0.00  0.00    -0.096 Br
ENDBRANCH   2   3
TORSDOF 1
