REMARK  1 active torsions:
REMARK  status: ('A' for Active; 'I' for Inactive)
REMARK    1  A    between atoms: C_3  and  C_4 
ROOT
HETATM    1 Br   UNK     0      21.034  35.492   2.099  0.00  0.00    -0.096 Br
HETATM    2  C   UNK     0      19.880  36.782   2.989  0.00  0.00     0.096 C 
ENDROOT
BRANCH   2   3
HETATM    3  C   UNK     0      18.903  36.053   3.877  0.00  0.00     0.096 C 
HETATM    4 Br   UNK     0      17.241  37.061   3.977  0.00  0.00    -0.096 Br
ENDBRANCH   2   3
TORSDOF 1
