REMARK  1 active torsions:
REMARK  status: ('A' for Active; 'I' for Inactive)
REMARK    1  A    between atoms: C_3  and  C_4 
ROOT
HETATM    1 Br   UNK     0      26.095  32.895  -4.353  0.00  0.00    -0.096 Br
HETATM    2  C   UNK     0      27.010  33.241  -2.671  0.00  0.00     0.096 C 
ENDROOT
BRANCH   2   3
HETATM    3  C   UNK     0      27.561  31.948  -2.123  0.00  0.00     0.096 C 
HETATM    4 Br   UNK     0      26.264  31.154  -0.909  0.00  0.00    -0.096 Br
ENDBRANCH   2   3
TORSDOF 1
