REMARK  1 active torsions:
REMARK  status: ('A' for Active; 'I' for Inactive)
REMARK    1  A    between atoms: C_3  and  C_4 
ROOT
HETATM    1 Br   UNK     0      21.501  35.809   2.650  0.00  0.00    -0.096 Br
HETATM    2  C   UNK     0      19.963  36.869   3.195  0.00  0.00     0.096 C 
ENDROOT
BRANCH   2   3
HETATM    3  C   UNK     0      18.815  35.951   3.532  0.00  0.00     0.096 C 
HETATM    4 Br   UNK     0      17.328  36.999   4.224  0.00  0.00    -0.096 Br
ENDBRANCH   2   3
TORSDOF 1
