REMARK  1 active torsions:
REMARK  status: ('A' for Active; 'I' for Inactive)
REMARK    1  A    between atoms: C_3  and  C_4 
ROOT
HETATM    1 Br   UNK     0      21.246  35.590   1.964  0.00  0.00    -0.096 Br
HETATM    2  C   UNK     0      20.051  36.797   2.914  0.00  0.00     0.096 C 
ENDROOT
BRANCH   2   3
HETATM    3  C   UNK     0      18.946  36.001   3.563  0.00  0.00     0.096 C 
HETATM    4 Br   UNK     0      17.639  37.219   4.335  0.00  0.00    -0.096 Br
ENDBRANCH   2   3
TORSDOF 1
