REMARK  1 active torsions:
REMARK  status: ('A' for Active; 'I' for Inactive)
REMARK    1  A    between atoms: C_3  and  C_4 
ROOT
HETATM    1 Br   UNK     0      21.510  35.696   2.281  0.00  0.00    -0.096 Br
HETATM    2  C   UNK     0      20.072  36.839   2.921  0.00  0.00     0.096 C 
ENDROOT
BRANCH   2   3
HETATM    3  C   UNK     0      18.947  35.985   3.448  0.00  0.00     0.096 C 
HETATM    4 Br   UNK     0      17.541  37.127   4.159  0.00  0.00    -0.096 Br
ENDBRANCH   2   3
TORSDOF 1
