REMARK  1 active torsions:
REMARK  status: ('A' for Active; 'I' for Inactive)
REMARK    1  A    between atoms: C_3  and  C_4 
ROOT
HETATM    1 Br   UNK     0      26.521  32.801  -2.474  0.00  0.00    -0.096 Br
HETATM    2  C   UNK     0      24.732  32.887  -3.234  0.00  0.00     0.096 C 
ENDROOT
BRANCH   2   3
HETATM    3  C   UNK     0      24.477  31.650  -4.059  0.00  0.00     0.096 C 
HETATM    4 Br   UNK     0      22.895  31.920  -5.158  0.00  0.00    -0.096 Br
ENDBRANCH   2   3
TORSDOF 1
