REMARK  1 active torsions:
REMARK  status: ('A' for Active; 'I' for Inactive)
REMARK    1  A    between atoms: C_3  and  C_4 
ROOT
HETATM    1 Br   UNK     0      25.506  33.090  -2.852  0.00  0.00    -0.096 Br
HETATM    2  C   UNK     0      25.545  31.260  -3.509  0.00  0.00     0.096 C 
ENDROOT
BRANCH   2   3
HETATM    3  C   UNK     0      24.830  31.186  -4.834  0.00  0.00     0.096 C 
HETATM    4 Br   UNK     0      23.050  31.951  -4.656  0.00  0.00    -0.096 Br
ENDBRANCH   2   3
TORSDOF 1
