REMARK  1 active torsions:
REMARK  status: ('A' for Active; 'I' for Inactive)
REMARK    1  A    between atoms: C_3  and  C_4 
ROOT
HETATM    1 Br   UNK     0      25.775  33.343  -3.049  0.00  0.00    -0.096 Br
HETATM    2  C   UNK     0      25.841  32.531  -4.817  0.00  0.00     0.096 C 
ENDROOT
BRANCH   2   3
HETATM    3  C   UNK     0      24.914  31.342  -4.860  0.00  0.00     0.096 C 
HETATM    4 Br   UNK     0      23.115  31.904  -4.377  0.00  0.00    -0.096 Br
ENDBRANCH   2   3
TORSDOF 1
