REMARK  1 active torsions:
REMARK  status: ('A' for Active; 'I' for Inactive)
REMARK    1  A    between atoms: C_3  and  C_4 
ROOT
HETATM    1 Br   UNK     0      21.391  35.780   2.408  0.00  0.00    -0.096 Br
HETATM    2  C   UNK     0      19.840  36.869   2.849  0.00  0.00     0.096 C 
ENDROOT
BRANCH   2   3
HETATM    3  C   UNK     0      18.683  35.974   3.211  0.00  0.00     0.096 C 
HETATM    4 Br   UNK     0      17.147  37.062   3.700  0.00  0.00    -0.096 Br
ENDBRANCH   2   3
TORSDOF 1
