REMARK  1 active torsions:
REMARK  status: ('A' for Active; 'I' for Inactive)
REMARK    1  A    between atoms: C_3  and  C_4 
ROOT
HETATM    1 Br   UNK     0      21.305  35.637   1.962  0.00  0.00    -0.096 Br
HETATM    2  C   UNK     0      20.078  36.817   2.902  0.00  0.00     0.096 C 
ENDROOT
BRANCH   2   3
HETATM    3  C   UNK     0      18.964  36.005   3.511  0.00  0.00     0.096 C 
HETATM    4 Br   UNK     0      17.677  37.196   4.354  0.00  0.00    -0.096 Br
ENDBRANCH   2   3
TORSDOF 1
