MODEL 8
REMARK VINA RESULT:    -1.548      2.193      2.362
REMARK INTER + INTRA:          -1.638
REMARK INTER:                  -1.638
REMARK INTRA:                   0.000
REMARK UNBOUND:                 0.000
REMARK  1 active torsions:
REMARK  status: ('A' for Active; 'I' for Inactive)
REMARK    1  A    between atoms: C_3  and  C_4 
ROOT
HETATM    1 Br   UNK     0      20.638  34.274   2.074  0.00  0.00    -0.096 Br
HETATM    2  C   UNK     0      19.537  35.462   3.153  0.00  0.00     0.096 C 
ENDROOT
BRANCH   2   3
HETATM    3  C   UNK     0      19.973  36.889   2.934  0.00  0.00     0.096 C 
HETATM    4 Br   UNK     0      21.281  36.953   1.494  0.00  0.00    -0.096 Br
ENDBRANCH   2   3
TORSDOF 1
ENDMDL
