MODEL 3
REMARK VINA RESULT:    -3.281      1.800      2.767
REMARK INTER + INTRA:          -3.473
REMARK INTER:                  -3.473
REMARK INTRA:                   0.000
REMARK UNBOUND:                 0.000
REMARK  1 active torsions:
REMARK  status: ('A' for Active; 'I' for Inactive)
REMARK    1  A    between atoms: C_3  and  C_4 
ROOT
HETATM    1 Br   UNK     0      21.112  36.485   1.878  0.00  0.00    -0.096 Br
HETATM    2  C   UNK     0      19.724  35.416   2.724  0.00  0.00     0.096 C 
ENDROOT
BRANCH   2   3
HETATM    3  C   UNK     0      18.797  36.318   3.500  0.00  0.00     0.096 C 
HETATM    4 Br   UNK     0      17.370  36.940   2.333  0.00  0.00    -0.096 Br
ENDBRANCH   2   3
TORSDOF 1
ENDMDL
