MODEL 3
REMARK VINA RESULT:    -3.295      2.043      2.099
REMARK INTER + INTRA:          -3.487
REMARK INTER:                  -3.487
REMARK INTRA:                   0.000
REMARK UNBOUND:                 0.000
REMARK  1 active torsions:
REMARK  status: ('A' for Active; 'I' for Inactive)
REMARK    1  A    between atoms: C_3  and  C_4 
ROOT
HETATM    1 Br   UNK     0      20.968  36.514   1.758  0.00  0.00    -0.096 Br
HETATM    2  C   UNK     0      19.732  35.410   2.777  0.00  0.00     0.096 C 
ENDROOT
BRANCH   2   3
HETATM    3  C   UNK     0      18.766  36.295   3.524  0.00  0.00     0.096 C 
HETATM    4 Br   UNK     0      17.402  36.947   2.299  0.00  0.00    -0.096 Br
ENDBRANCH   2   3
TORSDOF 1
ENDMDL
