REMARK  1 active torsions:
REMARK  status: ('A' for Active; 'I' for Inactive)
REMARK    1  A    between atoms: C_3  and  C_4 
ROOT
HETATM    1 Br   UNK     0      21.460  35.785   2.249  0.00  0.00    -0.096 Br
HETATM    2  C   UNK     0      19.830  36.826   2.469  0.00  0.00     0.096 C 
ENDROOT
BRANCH   2   3
HETATM    3  C   UNK     0      18.669  35.895   2.714  0.00  0.00     0.096 C 
HETATM    4 Br   UNK     0      17.042  36.937   2.949  0.00  0.00    -0.096 Br
ENDBRANCH   2   3
TORSDOF 1
