REMARK  1 active torsions:
REMARK  status: ('A' for Active; 'I' for Inactive)
REMARK    1  A    between atoms: C_3  and  C_4 
ROOT
HETATM    1 Br   UNK     0      26.030  33.626  -3.154  0.00  0.00    -0.096 Br
HETATM    2  C   UNK     0      26.933  33.232  -4.832  0.00  0.00     0.096 C 
ENDROOT
BRANCH   2   3
HETATM    3  C   UNK     0      25.991  32.494  -5.749  0.00  0.00     0.096 C 
HETATM    4 Br   UNK     0      26.445  30.601  -5.758  0.00  0.00    -0.096 Br
ENDBRANCH   2   3
TORSDOF 1
