REMARK  1 active torsions:
REMARK  status: ('A' for Active; 'I' for Inactive)
REMARK    1  A    between atoms: C_3  and  C_4 
ROOT
HETATM    1 Br   UNK     0      21.255  35.578   1.957  0.00  0.00    -0.096 Br
HETATM    2  C   UNK     0      20.160  36.754   3.054  0.00  0.00     0.096 C 
ENDROOT
BRANCH   2   3
HETATM    3  C   UNK     0      19.212  35.927   3.885  0.00  0.00     0.096 C 
HETATM    4 Br   UNK     0      18.287  37.078   5.153  0.00  0.00    -0.096 Br
ENDBRANCH   2   3
TORSDOF 1
