REMARK  1 active torsions:
REMARK  status: ('A' for Active; 'I' for Inactive)
REMARK    1  A    between atoms: C_3  and  C_4 
ROOT
HETATM    1 Br   UNK     0      21.146  35.502   0.852  0.00  0.00    -0.096 Br
HETATM    2  C   UNK     0      20.723  36.494   2.471  0.00  0.00     0.096 C 
ENDROOT
BRANCH   2   3
HETATM    3  C   UNK     0      19.509  35.888   3.129  0.00  0.00     0.096 C 
HETATM    4 Br   UNK     0      19.108  36.856   4.769  0.00  0.00    -0.096 Br
ENDBRANCH   2   3
TORSDOF 1
