REMARK  1 active torsions:
REMARK  status: ('A' for Active; 'I' for Inactive)
REMARK    1  A    between atoms: C_3  and  C_4 
ROOT
HETATM    1 Br   UNK     0      23.830  35.253   0.187  0.00  0.00    -0.096 Br
HETATM    2  C   UNK     0      22.013  35.949   0.159  0.00  0.00     0.096 C 
ENDROOT
BRANCH   2   3
HETATM    3  C   UNK     0      21.035  34.801   0.159  0.00  0.00     0.096 C 
HETATM    4 Br   UNK     0      19.218  35.497   0.187  0.00  0.00    -0.096 Br
ENDBRANCH   2   3
TORSDOF 1
