REMARK  1 active torsions:
REMARK  status: ('A' for Active; 'I' for Inactive)
REMARK    1  A    between atoms: C_3  and  C_4 
ROOT
HETATM    1 Br   UNK     0      21.302  35.696   2.480  0.00  0.00    -0.096 Br
HETATM    2  C   UNK     0      19.841  36.791   3.154  0.00  0.00     0.096 C 
ENDROOT
BRANCH   2   3
HETATM    3  C   UNK     0      18.790  35.903   3.771  0.00  0.00     0.096 C 
HETATM    4 Br   UNK     0      17.401  37.004   4.575  0.00  0.00    -0.096 Br
ENDBRANCH   2   3
TORSDOF 1
