REMARK  1 active torsions:
REMARK  status: ('A' for Active; 'I' for Inactive)
REMARK    1  A    between atoms: C_3  and  C_4 
ROOT
HETATM    1 Br   UNK     0      24.885  33.861  -2.379  0.00  0.00    -0.096 Br
HETATM    2  C   UNK     0      23.464  35.098  -1.892  0.00  0.00     0.096 C 
ENDROOT
BRANCH   2   3
HETATM    3  C   UNK     0      22.304  34.328  -1.314  0.00  0.00     0.096 C 
HETATM    4 Br   UNK     0      21.747  35.151   0.359  0.00  0.00    -0.096 Br
ENDBRANCH   2   3
TORSDOF 1
