MODEL 8
REMARK VINA RESULT:    -0.756      2.141      2.368
REMARK INTER + INTRA:          -0.800
REMARK INTER:                  -0.800
REMARK INTRA:                   0.000
REMARK UNBOUND:                 0.000
REMARK  1 active torsions:
REMARK  status: ('A' for Active; 'I' for Inactive)
REMARK    1  A    between atoms: C_3  and  C_4 
ROOT
HETATM    1 Br   UNK     0      19.768  35.173   2.980  0.00  0.00    -0.096 Br
HETATM    2  C   UNK     0      20.116  36.967   2.313  0.00  0.00     0.096 C 
ENDROOT
BRANCH   2   3
HETATM    3  C   UNK     0      21.362  36.956   1.464  0.00  0.00     0.096 C 
HETATM    4 Br   UNK     0      21.508  35.244   0.550  0.00  0.00    -0.096 Br
ENDBRANCH   2   3
TORSDOF 1
ENDMDL
