MODEL 3
REMARK VINA RESULT:    -3.301      1.784      1.784
REMARK INTER + INTRA:          -3.494
REMARK INTER:                  -3.494
REMARK INTRA:                   0.000
REMARK UNBOUND:                 0.000
REMARK  1 active torsions:
REMARK  status: ('A' for Active; 'I' for Inactive)
REMARK    1  A    between atoms: C_3  and  C_4 
ROOT
HETATM    1 Br   UNK     0      17.391  36.907   2.356  0.00  0.00    -0.096 Br
HETATM    2  C   UNK     0      18.830  36.222   3.473  0.00  0.00     0.096 C 
ENDROOT
BRANCH   2   3
HETATM    3  C   UNK     0      19.752  35.369   2.638  0.00  0.00     0.096 C 
HETATM    4 Br   UNK     0      21.073  36.502   1.767  0.00  0.00    -0.096 Br
ENDBRANCH   2   3
TORSDOF 1
ENDMDL
