MODEL 8
REMARK VINA RESULT:    -1.454      2.330      2.581
REMARK INTER + INTRA:          -1.539
REMARK INTER:                  -1.539
REMARK INTRA:                   0.000
REMARK UNBOUND:                 0.000
REMARK  1 active torsions:
REMARK  status: ('A' for Active; 'I' for Inactive)
REMARK    1  A    between atoms: C_3  and  C_4 
ROOT
HETATM    1 Br   UNK     0      21.275  36.918   1.311  0.00  0.00    -0.096 Br
HETATM    2  C   UNK     0      19.636  36.854   2.358  0.00  0.00     0.096 C 
ENDROOT
BRANCH   2   3
HETATM    3  C   UNK     0      19.472  35.478   2.952  0.00  0.00     0.096 C 
HETATM    4 Br   UNK     0      20.762  34.265   2.144  0.00  0.00    -0.096 Br
ENDBRANCH   2   3
TORSDOF 1
ENDMDL
