MODEL 2
REMARK VINA RESULT:    -3.296      1.926      2.001
REMARK INTER + INTRA:          -3.489
REMARK INTER:                  -3.489
REMARK INTRA:                   0.000
REMARK UNBOUND:                 0.000
REMARK  1 active torsions:
REMARK  status: ('A' for Active; 'I' for Inactive)
REMARK    1  A    between atoms: C_3  and  C_4 
ROOT
HETATM    1 Br   UNK     0      21.062  36.485   1.839  0.00  0.00    -0.096 Br
HETATM    2  C   UNK     0      19.702  35.396   2.706  0.00  0.00     0.096 C 
ENDROOT
BRANCH   2   3
HETATM    3  C   UNK     0      18.767  36.286   3.485  0.00  0.00     0.096 C 
HETATM    4 Br   UNK     0      17.390  36.978   2.298  0.00  0.00    -0.096 Br
ENDBRANCH   2   3
TORSDOF 1
ENDMDL
