MODEL 7
REMARK VINA RESULT:    -1.624      2.037      2.100
REMARK INTER + INTRA:          -1.718
REMARK INTER:                  -1.718
REMARK INTRA:                   0.000
REMARK UNBOUND:                 0.000
REMARK  1 active torsions:
REMARK  status: ('A' for Active; 'I' for Inactive)
REMARK    1  A    between atoms: C_3  and  C_4 
ROOT
HETATM    1 Br   UNK     0      19.499  36.411   3.709  0.00  0.00    -0.096 Br
HETATM    2  C   UNK     0      20.259  37.126   2.066  0.00  0.00     0.096 C 
ENDROOT
BRANCH   2   3
HETATM    3  C   UNK     0      21.205  36.115   1.468  0.00  0.00     0.096 C 
HETATM    4 Br   UNK     0      20.762  34.340   2.134  0.00  0.00    -0.096 Br
ENDBRANCH   2   3
TORSDOF 1
ENDMDL
