MODEL 9
REMARK VINA RESULT:    -1.573      2.251      2.480
REMARK INTER + INTRA:          -1.665
REMARK INTER:                  -1.665
REMARK INTRA:                   0.000
REMARK UNBOUND:                 0.000
REMARK  1 active torsions:
REMARK  status: ('A' for Active; 'I' for Inactive)
REMARK    1  A    between atoms: C_3  and  C_4 
ROOT
HETATM    1 Br   UNK     0      19.691  36.456   3.372  0.00  0.00    -0.096 Br
HETATM    2  C   UNK     0      20.764  37.050   1.861  0.00  0.00     0.096 C 
ENDROOT
BRANCH   2   3
HETATM    3  C   UNK     0      21.202  35.853   1.055  0.00  0.00     0.096 C 
HETATM    4 Br   UNK     0      20.758  34.223   2.020  0.00  0.00    -0.096 Br
ENDBRANCH   2   3
TORSDOF 1
ENDMDL
