REMARK  1 active torsions:
REMARK  status: ('A' for Active; 'I' for Inactive)
REMARK    1  A    between atoms: C_3  and  C_4 
ROOT
HETATM    1 Br   UNK     0      25.235  33.753  -2.339  0.00  0.00    -0.096 Br
HETATM    2  C   UNK     0      23.824  34.990  -1.823  0.00  0.00     0.096 C 
ENDROOT
BRANCH   2   3
HETATM    3  C   UNK     0      22.586  34.214  -1.450  0.00  0.00     0.096 C 
HETATM    4 Br   UNK     0      21.719  35.068   0.069  0.00  0.00    -0.096 Br
ENDBRANCH   2   3
TORSDOF 1
