REMARK  1 active torsions:
REMARK  status: ('A' for Active; 'I' for Inactive)
REMARK    1  A    between atoms: C_3  and  C_4 
ROOT
HETATM    1 Br   UNK     0      26.515  32.752  -2.468  0.00  0.00    -0.096 Br
HETATM    2  C   UNK     0      24.667  32.668  -3.073  0.00  0.00     0.096 C 
ENDROOT
BRANCH   2   3
HETATM    3  C   UNK     0      24.542  31.632  -4.161  0.00  0.00     0.096 C 
HETATM    4 Br   UNK     0      22.904  31.941  -5.165  0.00  0.00    -0.096 Br
ENDBRANCH   2   3
TORSDOF 1
