REMARK  1 active torsions:
REMARK  status: ('A' for Active; 'I' for Inactive)
REMARK    1  A    between atoms: C_3  and  C_4 
ROOT
HETATM    1 Br   UNK     0      26.317  32.702  -2.483  0.00  0.00    -0.096 Br
HETATM    2  C   UNK     0      24.548  32.817  -3.285  0.00  0.00     0.096 C 
ENDROOT
BRANCH   2   3
HETATM    3  C   UNK     0      24.313  31.611  -4.157  0.00  0.00     0.096 C 
HETATM    4 Br   UNK     0      22.712  31.887  -5.231  0.00  0.00    -0.096 Br
ENDBRANCH   2   3
TORSDOF 1
