REMARK  1 active torsions:
REMARK  status: ('A' for Active; 'I' for Inactive)
REMARK    1  A    between atoms: C_3  and  C_4 
ROOT
HETATM    1 Br   UNK     0      22.014  34.881  -0.421  0.00  0.00    -0.096 Br
HETATM    2  C   UNK     0      23.223  34.623  -1.925  0.00  0.00     0.096 C 
ENDROOT
BRANCH   2   3
HETATM    3  C   UNK     0      23.706  33.195  -1.942  0.00  0.00     0.096 C 
HETATM    4 Br   UNK     0      23.140  32.338  -3.596  0.00  0.00    -0.096 Br
ENDBRANCH   2   3
TORSDOF 1
