REMARK  1 active torsions:
REMARK  status: ('A' for Active; 'I' for Inactive)
REMARK    1  A    between atoms: C_3  and  C_4 
ROOT
HETATM    1 Br   UNK     0      23.661  33.558  -2.179  0.00  0.00    -0.096 Br
HETATM    2  C   UNK     0      25.252  33.116  -3.209  0.00  0.00     0.096 C 
ENDROOT
BRANCH   2   3
HETATM    3  C   UNK     0      25.092  31.745  -3.817  0.00  0.00     0.096 C 
HETATM    4 Br   UNK     0      24.215  31.901  -5.547  0.00  0.00    -0.096 Br
ENDBRANCH   2   3
TORSDOF 1
