REMARK  1 active torsions:
REMARK  status: ('A' for Active; 'I' for Inactive)
REMARK    1  A    between atoms: C_3  and  C_4 
ROOT
HETATM    1 Br   UNK     0      27.088  33.501  -4.473  0.00  0.00    -0.096 Br
HETATM    2  C   UNK     0      25.968  33.440  -2.883  0.00  0.00     0.096 C 
ENDROOT
BRANCH   2   3
HETATM    3  C   UNK     0      25.303  32.090  -2.788  0.00  0.00     0.096 C 
HETATM    4 Br   UNK     0      23.748  32.049  -3.956  0.00  0.00    -0.096 Br
ENDBRANCH   2   3
TORSDOF 1
