REMARK  1 active torsions:
REMARK  status: ('A' for Active; 'I' for Inactive)
REMARK    1  A    between atoms: C_3  and  C_4 
ROOT
HETATM    1 Br   UNK     0      21.041  35.489   2.184  0.00  0.00    -0.096 Br
HETATM    2  C   UNK     0      19.853  36.815   2.970  0.00  0.00     0.096 C 
ENDROOT
BRANCH   2   3
HETATM    3  C   UNK     0      18.805  36.120   3.802  0.00  0.00     0.096 C 
HETATM    4 Br   UNK     0      17.695  37.449   4.689  0.00  0.00    -0.096 Br
ENDBRANCH   2   3
TORSDOF 1
