MODEL 6
REMARK VINA RESULT:    -1.839      1.824      2.914
REMARK INTER + INTRA:          -1.946
REMARK INTER:                  -1.946
REMARK INTRA:                   0.000
REMARK UNBOUND:                 0.000
REMARK  1 active torsions:
REMARK  status: ('A' for Active; 'I' for Inactive)
REMARK    1  A    between atoms: C_3  and  C_4 
ROOT
HETATM    1 Br   UNK     0      20.432  36.278   0.996  0.00  0.00    -0.096 Br
HETATM    2  C   UNK     0      20.575  35.784   2.872  0.00  0.00     0.096 C 
ENDROOT
BRANCH   2   3
HETATM    3  C   UNK     0      19.353  36.265   3.613  0.00  0.00     0.096 C 
HETATM    4 Br   UNK     0      17.958  36.722   2.336  0.00  0.00    -0.096 Br
ENDBRANCH   2   3
TORSDOF 1
ENDMDL
