MODEL 7
REMARK VINA RESULT:    -1.464      1.366      1.533
REMARK INTER + INTRA:          -1.550
REMARK INTER:                  -1.550
REMARK INTRA:                   0.000
REMARK UNBOUND:                 0.000
REMARK  1 active torsions:
REMARK  status: ('A' for Active; 'I' for Inactive)
REMARK    1  A    between atoms: C_3  and  C_4 
ROOT
HETATM    1 Br   UNK     0      21.582  36.022   1.251  0.00  0.00    -0.096 Br
HETATM    2  C   UNK     0      20.576  34.610   2.136  0.00  0.00     0.096 C 
ENDROOT
BRANCH   2   3
HETATM    3  C   UNK     0      19.769  35.200   3.265  0.00  0.00     0.096 C 
HETATM    4 Br   UNK     0      20.393  37.007   3.633  0.00  0.00    -0.096 Br
ENDBRANCH   2   3
TORSDOF 1
ENDMDL
