MODEL 1
REMARK VINA RESULT:    -3.351      0.000      0.000
REMARK INTER + INTRA:          -3.547
REMARK INTER:                  -3.547
REMARK INTRA:                   0.000
REMARK UNBOUND:                 0.000
REMARK  1 active torsions:
REMARK  status: ('A' for Active; 'I' for Inactive)
REMARK    1  A    between atoms: C_3  and  C_4 
ROOT
HETATM    1 Br   UNK     0      19.689  37.082   5.066  0.00  0.00    -0.096 Br
HETATM    2  C   UNK     0      18.790  36.240   3.559  0.00  0.00     0.096 C 
ENDROOT
BRANCH   2   3
HETATM    3  C   UNK     0      19.777  35.396   2.792  0.00  0.00     0.096 C 
HETATM    4 Br   UNK     0      21.001  36.554   1.818  0.00  0.00    -0.096 Br
ENDBRANCH   2   3
TORSDOF 1
ENDMDL
