MODEL 8
REMARK VINA RESULT:    -0.670      2.013      2.538
REMARK INTER + INTRA:          -0.710
REMARK INTER:                  -0.710
REMARK INTRA:                   0.000
REMARK UNBOUND:                 0.000
REMARK  1 active torsions:
REMARK  status: ('A' for Active; 'I' for Inactive)
REMARK    1  A    between atoms: C_3  and  C_4 
ROOT
HETATM    1 Br   UNK     0      20.526  37.098   2.316  0.00  0.00    -0.096 Br
HETATM    2  C   UNK     0      19.854  35.281   2.491  0.00  0.00     0.096 C 
ENDROOT
BRANCH   2   3
HETATM    3  C   UNK     0      20.835  34.320   1.867  0.00  0.00     0.096 C 
HETATM    4 Br   UNK     0      21.629  35.137   0.290  0.00  0.00    -0.096 Br
ENDBRANCH   2   3
TORSDOF 1
ENDMDL
