REMARK  1 active torsions:
REMARK  status: ('A' for Active; 'I' for Inactive)
REMARK    1  A    between atoms: C_3  and  C_4 
ROOT
HETATM    1 Br   UNK     0      22.528  34.948  -1.354  0.00  0.00    -0.096 Br
HETATM    2  C   UNK     0      21.588  36.040  -0.045  0.00  0.00     0.096 C 
ENDROOT
BRANCH   2   3
HETATM    3  C   UNK     0      21.221  35.192   1.146  0.00  0.00     0.096 C 
HETATM    4 Br   UNK     0      20.509  36.328   2.557  0.00  0.00    -0.096 Br
ENDBRANCH   2   3
TORSDOF 1
