MODEL 1
REMARK VINA RESULT:    -2.814      0.000      0.000
REMARK INTER + INTRA:          -2.978
REMARK INTER:                  -2.978
REMARK INTRA:                   0.000
REMARK UNBOUND:                 0.000
REMARK  1 active torsions:
REMARK  status: ('A' for Active; 'I' for Inactive)
REMARK    1  A    between atoms: C_3  and  C_4 
ROOT
HETATM    1 Br   UNK     0      17.382  36.921   2.229  0.00  0.00    -0.096 Br
HETATM    2  C   UNK     0      17.791  36.902   4.132  0.00  0.00     0.096 C 
ENDROOT
BRANCH   2   3
HETATM    3  C   UNK     0      19.262  36.634   4.327  0.00  0.00     0.096 C 
HETATM    4 Br   UNK     0      20.044  36.051   2.643  0.00  0.00    -0.096 Br
ENDBRANCH   2   3
TORSDOF 1
ENDMDL
