MODEL 1
REMARK VINA RESULT:    -2.834      0.000      0.000
REMARK INTER + INTRA:          -2.999
REMARK INTER:                  -2.999
REMARK INTRA:                   0.000
REMARK UNBOUND:                 0.000
REMARK  1 active torsions:
REMARK  status: ('A' for Active; 'I' for Inactive)
REMARK    1  A    between atoms: C_3  and  C_4 
ROOT
HETATM    1 Br   UNK     0      19.296  37.011   5.224  0.00  0.00    -0.096 Br
HETATM    2  C   UNK     0      17.715  36.955   4.092  0.00  0.00     0.096 C 
ENDROOT
BRANCH   2   3
HETATM    3  C   UNK     0      18.123  36.637   2.675  0.00  0.00     0.096 C 
HETATM    4 Br   UNK     0      19.976  36.046   2.650  0.00  0.00    -0.096 Br
ENDBRANCH   2   3
TORSDOF 1
ENDMDL
