MODEL 1
REMARK VINA RESULT:    -2.388      0.000      0.000
REMARK INTER + INTRA:          -2.527
REMARK INTER:                  -2.527
REMARK INTRA:                   0.000
REMARK UNBOUND:                 0.000
REMARK  1 active torsions:
REMARK  status: ('A' for Active; 'I' for Inactive)
REMARK    1  A    between atoms: C_3  and  C_4 
ROOT
HETATM    1 Br   UNK     0      17.814  36.951   2.374  0.00  0.00    -0.096 Br
HETATM    2  C   UNK     0      19.207  36.135   3.460  0.00  0.00     0.096 C 
ENDROOT
BRANCH   2   3
HETATM    3  C   UNK     0      20.137  35.344   2.575  0.00  0.00     0.096 C 
HETATM    4 Br   UNK     0      21.161  36.564   1.456  0.00  0.00    -0.096 Br
ENDBRANCH   2   3
TORSDOF 1
ENDMDL
