MODEL 1
REMARK VINA RESULT:    -2.794      0.000      0.000
REMARK INTER + INTRA:          -2.958
REMARK INTER:                  -2.958
REMARK INTRA:                   0.000
REMARK UNBOUND:                 0.000
REMARK  1 active torsions:
REMARK  status: ('A' for Active; 'I' for Inactive)
REMARK    1  A    between atoms: C_3  and  C_4 
ROOT
HETATM    1 Br   UNK     0      19.752  37.155   5.186  0.00  0.00    -0.096 Br
HETATM    2  C   UNK     0      18.250  36.486   4.146  0.00  0.00     0.096 C 
ENDROOT
BRANCH   2   3
HETATM    3  C   UNK     0      18.611  36.492   2.681  0.00  0.00     0.096 C 
HETATM    4 Br   UNK     0      20.524  36.193   2.484  0.00  0.00    -0.096 Br
ENDBRANCH   2   3
TORSDOF 1
ENDMDL
