MODEL 1
REMARK VINA RESULT:    -2.723      0.000      0.000
REMARK INTER + INTRA:          -2.882
REMARK INTER:                  -2.882
REMARK INTRA:                   0.000
REMARK UNBOUND:                 0.000
REMARK  1 active torsions:
REMARK  status: ('A' for Active; 'I' for Inactive)
REMARK    1  A    between atoms: C_3  and  C_4 
ROOT
HETATM    1 Br   UNK     0      17.551  36.873   2.359  0.00  0.00    -0.096 Br
HETATM    2  C   UNK     0      18.302  36.494   4.114  0.00  0.00     0.096 C 
ENDROOT
BRANCH   2   3
HETATM    3  C   UNK     0      19.793  36.717   4.082  0.00  0.00     0.096 C 
HETATM    4 Br   UNK     0      20.501  36.118   2.371  0.00  0.00    -0.096 Br
ENDBRANCH   2   3
TORSDOF 1
ENDMDL
