MODEL 1
REMARK VINA RESULT:    -2.834      0.000      0.000
REMARK INTER + INTRA:          -3.000
REMARK INTER:                  -3.000
REMARK INTRA:                   0.000
REMARK UNBOUND:                 0.000
REMARK  1 active torsions:
REMARK  status: ('A' for Active; 'I' for Inactive)
REMARK    1  A    between atoms: C_3  and  C_4 
ROOT
HETATM    1 Br   UNK     0      19.211  37.026   5.235  0.00  0.00    -0.096 Br
HETATM    2  C   UNK     0      17.667  36.936   4.055  0.00  0.00     0.096 C 
ENDROOT
BRANCH   2   3
HETATM    3  C   UNK     0      18.126  36.658   2.646  0.00  0.00     0.096 C 
HETATM    4 Br   UNK     0      19.992  36.106   2.669  0.00  0.00    -0.096 Br
ENDBRANCH   2   3
TORSDOF 1
ENDMDL
