MODEL 1
REMARK VINA RESULT:    -2.829      0.000      0.000
REMARK INTER + INTRA:          -2.995
REMARK INTER:                  -2.995
REMARK INTRA:                   0.000
REMARK UNBOUND:                 0.000
REMARK  1 active torsions:
REMARK  status: ('A' for Active; 'I' for Inactive)
REMARK    1  A    between atoms: C_3  and  C_4 
ROOT
HETATM    1 Br   UNK     0      19.101  37.025   5.239  0.00  0.00    -0.096 Br
HETATM    2  C   UNK     0      17.593  36.961   4.012  0.00  0.00     0.096 C 
ENDROOT
BRANCH   2   3
HETATM    3  C   UNK     0      18.091  36.670   2.618  0.00  0.00     0.096 C 
HETATM    4 Br   UNK     0      19.941  36.071   2.703  0.00  0.00    -0.096 Br
ENDBRANCH   2   3
TORSDOF 1
ENDMDL
