MODEL 1
REMARK VINA RESULT:    -2.863      0.000      0.000
REMARK INTER + INTRA:          -3.031
REMARK INTER:                  -3.031
REMARK INTRA:                   0.000
REMARK UNBOUND:                 0.000
REMARK  1 active torsions:
REMARK  status: ('A' for Active; 'I' for Inactive)
REMARK    1  A    between atoms: C_3  and  C_4 
ROOT
HETATM    1 Br   UNK     0      17.414  37.080   4.060  0.00  0.00    -0.096 Br
HETATM    2  C   UNK     0      19.278  36.523   4.057  0.00  0.00     0.096 C 
ENDROOT
BRANCH   2   3
HETATM    3  C   UNK     0      19.552  35.693   2.828  0.00  0.00     0.096 C 
HETATM    4 Br   UNK     0      21.074  36.436   1.869  0.00  0.00    -0.096 Br
ENDBRANCH   2   3
TORSDOF 1
ENDMDL
