MODEL 1
REMARK VINA RESULT:    -2.855      0.000      0.000
REMARK INTER + INTRA:          -3.022
REMARK INTER:                  -3.022
REMARK INTRA:                   0.000
REMARK UNBOUND:                 0.000
REMARK  1 active torsions:
REMARK  status: ('A' for Active; 'I' for Inactive)
REMARK    1  A    between atoms: C_3  and  C_4 
ROOT
HETATM    1 Br   UNK     0      17.398  37.009   4.024  0.00  0.00    -0.096 Br
HETATM    2  C   UNK     0      19.281  36.519   4.010  0.00  0.00     0.096 C 
ENDROOT
BRANCH   2   3
HETATM    3  C   UNK     0      19.574  35.680   2.792  0.00  0.00     0.096 C 
HETATM    4 Br   UNK     0      21.096  36.429   1.839  0.00  0.00    -0.096 Br
ENDBRANCH   2   3
TORSDOF 1
ENDMDL
