MODEL 1
REMARK VINA RESULT:    -1.832      0.000      0.000
REMARK INTER + INTRA:          -1.939
REMARK INTER:                  -1.939
REMARK INTRA:                   0.000
REMARK UNBOUND:                 0.000
REMARK  1 active torsions:
REMARK  status: ('A' for Active; 'I' for Inactive)
REMARK    1  A    between atoms: C_3  and  C_4 
ROOT
HETATM    1 Br   UNK     0      28.250  34.141  -4.169  0.00  0.00    -0.096 Br
HETATM    2  C   UNK     0      26.712  33.843  -3.015  0.00  0.00     0.096 C 
ENDROOT
BRANCH   2   3
HETATM    3  C   UNK     0      25.761  32.881  -3.683  0.00  0.00     0.096 C 
HETATM    4 Br   UNK     0      24.106  32.792  -2.664  0.00  0.00    -0.096 Br
ENDBRANCH   2   3
TORSDOF 1
ENDMDL
