MODEL 1
REMARK VINA RESULT:    -2.444      0.000      0.000
REMARK INTER + INTRA:          -2.587
REMARK INTER:                  -2.587
REMARK INTRA:                   0.000
REMARK UNBOUND:                 0.000
REMARK  1 active torsions:
REMARK  status: ('A' for Active; 'I' for Inactive)
REMARK    1  A    between atoms: C_3  and  C_4 
ROOT
HETATM    1 Br   UNK     0      17.762  36.785   2.039  0.00  0.00    -0.096 Br
HETATM    2  C   UNK     0      18.492  36.407   3.803  0.00  0.00     0.096 C 
ENDROOT
BRANCH   2   3
HETATM    3  C   UNK     0      19.976  36.677   3.802  0.00  0.00     0.096 C 
HETATM    4 Br   UNK     0      20.771  35.917   2.196  0.00  0.00    -0.096 Br
ENDBRANCH   2   3
TORSDOF 1
ENDMDL
