MODEL 1
REMARK VINA RESULT:    -2.824      0.000      0.000
REMARK INTER + INTRA:          -2.989
REMARK INTER:                  -2.989
REMARK INTRA:                   0.000
REMARK UNBOUND:                 0.000
REMARK  1 active torsions:
REMARK  status: ('A' for Active; 'I' for Inactive)
REMARK    1  A    between atoms: C_3  and  C_4 
ROOT
HETATM    1 Br   UNK     0      19.266  37.031   5.197  0.00  0.00    -0.096 Br
HETATM    2  C   UNK     0      17.697  36.891   4.055  0.00  0.00     0.096 C 
ENDROOT
BRANCH   2   3
HETATM    3  C   UNK     0      18.132  36.680   2.627  0.00  0.00     0.096 C 
HETATM    4 Br   UNK     0      19.871  35.807   2.601  0.00  0.00    -0.096 Br
ENDBRANCH   2   3
TORSDOF 1
ENDMDL
