MODEL 1
REMARK VINA RESULT:    -1.898      0.000      0.000
REMARK INTER + INTRA:          -2.009
REMARK INTER:                  -2.009
REMARK INTRA:                   0.000
REMARK UNBOUND:                 0.000
REMARK  1 active torsions:
REMARK  status: ('A' for Active; 'I' for Inactive)
REMARK    1  A    between atoms: C_3  and  C_4 
ROOT
HETATM    1 Br   UNK     0      18.057  36.821   2.425  0.00  0.00    -0.096 Br
HETATM    2  C   UNK     0      19.594  35.886   3.166  0.00  0.00     0.096 C 
ENDROOT
BRANCH   2   3
HETATM    3  C   UNK     0      20.307  35.140   2.066  0.00  0.00     0.096 C 
HETATM    4 Br   UNK     0      21.430  36.377   1.067  0.00  0.00    -0.096 Br
ENDBRANCH   2   3
TORSDOF 1
ENDMDL
