MODEL 1
REMARK VINA RESULT:    -2.863      0.000      0.000
REMARK INTER + INTRA:          -3.030
REMARK INTER:                  -3.030
REMARK INTRA:                   0.000
REMARK UNBOUND:                 0.000
REMARK  1 active torsions:
REMARK  status: ('A' for Active; 'I' for Inactive)
REMARK    1  A    between atoms: C_3  and  C_4 
ROOT
HETATM    1 Br   UNK     0      17.346  37.001   3.808  0.00  0.00    -0.096 Br
HETATM    2  C   UNK     0      19.211  36.473   3.979  0.00  0.00     0.096 C 
ENDROOT
BRANCH   2   3
HETATM    3  C   UNK     0      19.605  35.627   2.794  0.00  0.00     0.096 C 
HETATM    4 Br   UNK     0      21.088  36.471   1.859  0.00  0.00    -0.096 Br
ENDBRANCH   2   3
TORSDOF 1
ENDMDL
