MODEL 1
REMARK VINA RESULT:    -2.555      0.000      0.000
REMARK INTER + INTRA:          -2.704
REMARK INTER:                  -2.704
REMARK INTRA:                   0.000
REMARK UNBOUND:                 0.000
REMARK  1 active torsions:
REMARK  status: ('A' for Active; 'I' for Inactive)
REMARK    1  A    between atoms: C_3  and  C_4 
ROOT
HETATM    1 Br   UNK     0      17.695  36.923   2.145  0.00  0.00    -0.096 Br
HETATM    2  C   UNK     0      18.383  36.557   3.928  0.00  0.00     0.096 C 
ENDROOT
BRANCH   2   3
HETATM    3  C   UNK     0      19.891  36.563   3.897  0.00  0.00     0.096 C 
HETATM    4 Br   UNK     0      20.504  36.096   2.110  0.00  0.00    -0.096 Br
ENDBRANCH   2   3
TORSDOF 1
ENDMDL
