REMARK  1 active torsions:
REMARK  status: ('A' for Active; 'I' for Inactive)
REMARK    1  A    between atoms: C_3  and  C_4 
ROOT
HETATM    1 Br   UNK     0      24.899  33.585  -2.502  0.00  0.00    -0.096 Br
HETATM    2  C   UNK     0      23.693  34.926  -1.772  0.00  0.00     0.096 C 
ENDROOT
BRANCH   2   3
HETATM    3  C   UNK     0      22.407  34.264  -1.341  0.00  0.00     0.096 C 
HETATM    4 Br   UNK     0      21.740  35.131   0.270  0.00  0.00    -0.096 Br
ENDBRANCH   2   3
TORSDOF 1
