REMARK  1 active torsions:
REMARK  status: ('A' for Active; 'I' for Inactive)
REMARK    1  A    between atoms: C_3  and  C_4 
ROOT
HETATM    1 Br   UNK     0      23.533  33.595  -2.111  0.00  0.00    -0.096 Br
HETATM    2  C   UNK     0      22.599  35.127  -1.357  0.00  0.00     0.096 C 
ENDROOT
BRANCH   2   3
HETATM    3  C   UNK     0      21.834  34.696  -0.132  0.00  0.00     0.096 C 
HETATM    4 Br   UNK     0      21.472  36.246   0.986  0.00  0.00    -0.096 Br
ENDBRANCH   2   3
TORSDOF 1
