MODEL 7
REMARK VINA RESULT:    -0.743      2.169      2.453
REMARK INTER + INTRA:          -0.786
REMARK INTER:                  -0.786
REMARK INTRA:                   0.000
REMARK UNBOUND:                 0.000
REMARK  1 active torsions:
REMARK  status: ('A' for Active; 'I' for Inactive)
REMARK    1  A    between atoms: C_3  and  C_4 
ROOT
HETATM    1 Br   UNK     0      21.424  35.549   0.578  0.00  0.00    -0.096 Br
HETATM    2  C   UNK     0      21.566  36.934   1.937  0.00  0.00     0.096 C 
ENDROOT
BRANCH   2   3
HETATM    3  C   UNK     0      20.297  36.971   2.751  0.00  0.00     0.096 C 
HETATM    4 Br   UNK     0      19.644  35.157   3.018  0.00  0.00    -0.096 Br
ENDBRANCH   2   3
TORSDOF 1
ENDMDL
