MODEL 6
REMARK VINA RESULT:    -2.223      1.872      1.897
REMARK INTER + INTRA:          -2.353
REMARK INTER:                  -2.353
REMARK INTRA:                   0.000
REMARK UNBOUND:                 0.000
REMARK  1 active torsions:
REMARK  status: ('A' for Active; 'I' for Inactive)
REMARK    1  A    between atoms: C_3  and  C_4 
ROOT
HETATM    1 Br   UNK     0      18.861  35.966   3.810  0.00  0.00    -0.096 Br
HETATM    2  C   UNK     0      20.470  37.028   3.547  0.00  0.00     0.096 C 
ENDROOT
BRANCH   2   3
HETATM    3  C   UNK     0      21.246  36.482   2.374  0.00  0.00     0.096 C 
HETATM    4 Br   UNK     0      20.532  34.741   1.878  0.00  0.00    -0.096 Br
ENDBRANCH   2   3
TORSDOF 1
ENDMDL
