MODEL 2
REMARK VINA RESULT:    -3.358      0.133      2.731
REMARK INTER + INTRA:          -3.555
REMARK INTER:                  -3.555
REMARK INTRA:                   0.000
REMARK UNBOUND:                 0.000
REMARK  1 active torsions:
REMARK  status: ('A' for Active; 'I' for Inactive)
REMARK    1  A    between atoms: C_3  and  C_4 
ROOT
HETATM    1 Br   UNK     0      19.664  37.080   5.022  0.00  0.00    -0.096 Br
HETATM    2  C   UNK     0      18.741  36.292   3.501  0.00  0.00     0.096 C 
ENDROOT
BRANCH   2   3
HETATM    3  C   UNK     0      19.692  35.402   2.741  0.00  0.00     0.096 C 
HETATM    4 Br   UNK     0      21.006  36.498   1.814  0.00  0.00    -0.096 Br
ENDBRANCH   2   3
TORSDOF 1
ENDMDL
