MODEL 7
REMARK VINA RESULT:    -1.513      2.213      2.517
REMARK INTER + INTRA:          -1.601
REMARK INTER:                  -1.601
REMARK INTRA:                   0.000
REMARK UNBOUND:                 0.000
REMARK  1 active torsions:
REMARK  status: ('A' for Active; 'I' for Inactive)
REMARK    1  A    between atoms: C_3  and  C_4 
ROOT
HETATM    1 Br   UNK     0      21.378  37.038   1.781  0.00  0.00    -0.096 Br
HETATM    2  C   UNK     0      20.054  36.846   3.194  0.00  0.00     0.096 C 
ENDROOT
BRANCH   2   3
HETATM    3  C   UNK     0      19.512  35.438   3.188  0.00  0.00     0.096 C 
HETATM    4 Br   UNK     0      20.607  34.328   2.024  0.00  0.00    -0.096 Br
ENDBRANCH   2   3
TORSDOF 1
ENDMDL
