MODEL 7
REMARK VINA RESULT:    -1.549      2.212      2.436
REMARK INTER + INTRA:          -1.640
REMARK INTER:                  -1.640
REMARK INTRA:                   0.000
REMARK UNBOUND:                 0.000
REMARK  1 active torsions:
REMARK  status: ('A' for Active; 'I' for Inactive)
REMARK    1  A    between atoms: C_3  and  C_4 
ROOT
HETATM    1 Br   UNK     0      20.607  34.268   2.068  0.00  0.00    -0.096 Br
HETATM    2  C   UNK     0      19.527  35.474   3.148  0.00  0.00     0.096 C 
ENDROOT
BRANCH   2   3
HETATM    3  C   UNK     0      20.073  36.876   3.033  0.00  0.00     0.096 C 
HETATM    4 Br   UNK     0      21.345  36.958   1.563  0.00  0.00    -0.096 Br
ENDBRANCH   2   3
TORSDOF 1
ENDMDL
