REMARK  1 active torsions:
REMARK  status: ('A' for Active; 'I' for Inactive)
REMARK    1  A    between atoms: C_3  and  C_4 
ROOT
HETATM    1 Br   UNK     0      25.965  33.247  -2.376  0.00  0.00    -0.096 Br
HETATM    2  C   UNK     0      24.386  33.022  -3.490  0.00  0.00     0.096 C 
ENDROOT
BRANCH   2   3
HETATM    3  C   UNK     0      24.399  31.646  -4.108  0.00  0.00     0.096 C 
HETATM    4 Br   UNK     0      22.778  31.390  -5.154  0.00  0.00    -0.096 Br
ENDBRANCH   2   3
TORSDOF 1
