REMARK  1 active torsions:
REMARK  status: ('A' for Active; 'I' for Inactive)
REMARK    1  A    between atoms: C_3  and  C_4 
ROOT
HETATM    1 Br   UNK     0      20.386  35.057   0.526  0.00  0.00    -0.096 Br
HETATM    2  C   UNK     0      20.968  34.245   2.196  0.00  0.00     0.096 C 
ENDROOT
BRANCH   2   3
HETATM    3  C   UNK     0      19.829  34.258   3.184  0.00  0.00     0.096 C 
HETATM    4 Br   UNK     0      19.843  32.604   4.210  0.00  0.00    -0.096 Br
ENDBRANCH   2   3
TORSDOF 1
