REMARK  1 active torsions:
REMARK  status: ('A' for Active; 'I' for Inactive)
REMARK    1  A    between atoms: C_3  and  C_4 
ROOT
HETATM    1 Br   UNK     0      25.846  33.119  -3.227  0.00  0.00    -0.096 Br
HETATM    2  C   UNK     0      26.674  32.082  -1.803  0.00  0.00     0.096 C 
ENDROOT
BRANCH   2   3
HETATM    3  C   UNK     0      27.555  31.017  -2.405  0.00  0.00     0.096 C 
HETATM    4 Br   UNK     0      26.687  30.269  -3.978  0.00  0.00    -0.096 Br
ENDBRANCH   2   3
TORSDOF 1
