MODEL 7
REMARK VINA RESULT:    -1.906      1.525      2.851
REMARK INTER + INTRA:          -2.017
REMARK INTER:                  -2.017
REMARK INTRA:                   0.000
REMARK UNBOUND:                 0.000
REMARK  1 active torsions:
REMARK  status: ('A' for Active; 'I' for Inactive)
REMARK    1  A    between atoms: C_3  and  C_4 
ROOT
HETATM    1 Br   UNK     0      21.254  36.933   1.483  0.00  0.00    -0.096 Br
HETATM    2  C   UNK     0      20.833  35.036   1.573  0.00  0.00     0.096 C 
ENDROOT
BRANCH   2   3
HETATM    3  C   UNK     0      19.892  34.784   2.724  0.00  0.00     0.096 C 
HETATM    4 Br   UNK     0      19.127  36.472   3.318  0.00  0.00    -0.096 Br
ENDBRANCH   2   3
TORSDOF 1
ENDMDL
