MODEL 7
REMARK VINA RESULT:    -1.554      2.251      3.180
REMARK INTER + INTRA:          -1.645
REMARK INTER:                  -1.645
REMARK INTRA:                   0.000
REMARK UNBOUND:                 0.000
REMARK  1 active torsions:
REMARK  status: ('A' for Active; 'I' for Inactive)
REMARK    1  A    between atoms: C_3  and  C_4 
ROOT
HETATM    1 Br   UNK     0      20.022  36.714   3.541  0.00  0.00    -0.096 Br
HETATM    2  C   UNK     0      20.737  37.120   1.777  0.00  0.00     0.096 C 
ENDROOT
BRANCH   2   3
HETATM    3  C   UNK     0      21.225  35.849   1.128  0.00  0.00     0.096 C 
HETATM    4 Br   UNK     0      20.675  34.321   2.200  0.00  0.00    -0.096 Br
ENDBRANCH   2   3
TORSDOF 1
ENDMDL
