REMARK  1 active torsions:
REMARK  status: ('A' for Active; 'I' for Inactive)
REMARK    1  A    between atoms: C_3  and  C_4 
ROOT
HETATM    1 Br   UNK     0      26.024  33.400  -3.019  0.00  0.00    -0.096 Br
HETATM    2  C   UNK     0      27.134  32.929  -4.546  0.00  0.00     0.096 C 
ENDROOT
BRANCH   2   3
HETATM    3  C   UNK     0      26.279  32.289  -5.611  0.00  0.00     0.096 C 
HETATM    4 Br   UNK     0      26.644  30.378  -5.673  0.00  0.00    -0.096 Br
ENDBRANCH   2   3
TORSDOF 1
