MODEL 2
REMARK VINA RESULT:    -3.355      0.085      2.746
REMARK INTER + INTRA:          -3.552
REMARK INTER:                  -3.552
REMARK INTRA:                   0.000
REMARK UNBOUND:                 0.000
REMARK  1 active torsions:
REMARK  status: ('A' for Active; 'I' for Inactive)
REMARK    1  A    between atoms: C_3  and  C_4 
ROOT
HETATM    1 Br   UNK     0      20.970  36.526   1.932  0.00  0.00    -0.096 Br
HETATM    2  C   UNK     0      19.641  35.448   2.859  0.00  0.00     0.096 C 
ENDROOT
BRANCH   2   3
HETATM    3  C   UNK     0      18.708  36.350   3.627  0.00  0.00     0.096 C 
HETATM    4 Br   UNK     0      19.645  37.099   5.159  0.00  0.00    -0.096 Br
ENDBRANCH   2   3
TORSDOF 1
ENDMDL
