REMARK  1 active torsions:
REMARK  status: ('A' for Active; 'I' for Inactive)
REMARK    1  A    between atoms: C_3  and  C_4 
ROOT
HETATM    1 Br   UNK     0      21.381  35.714   2.140  0.00  0.00    -0.096 Br
HETATM    2  C   UNK     0      19.858  36.826   2.618  0.00  0.00     0.096 C 
ENDROOT
BRANCH   2   3
HETATM    3  C   UNK     0      18.701  35.947   3.022  0.00  0.00     0.096 C 
HETATM    4 Br   UNK     0      17.261  37.052   3.724  0.00  0.00    -0.096 Br
ENDBRANCH   2   3
TORSDOF 1
