MODEL 7
REMARK VINA RESULT:    -0.323      2.125      2.231
REMARK INTER + INTRA:          -0.342
REMARK INTER:                  -0.342
REMARK INTRA:                   0.000
REMARK UNBOUND:                 0.000
REMARK  1 active torsions:
REMARK  status: ('A' for Active; 'I' for Inactive)
REMARK    1  A    between atoms: C_3  and  C_4 
ROOT
HETATM    1 Br   UNK     0      20.267  36.818   0.567  0.00  0.00    -0.096 Br
HETATM    2  C   UNK     0      21.023  35.165   1.262  0.00  0.00     0.096 C 
ENDROOT
BRANCH   2   3
HETATM    3  C   UNK     0      20.914  35.156   2.766  0.00  0.00     0.096 C 
HETATM    4 Br   UNK     0      19.772  36.623   3.343  0.00  0.00    -0.096 Br
ENDBRANCH   2   3
TORSDOF 1
ENDMDL
