MODEL 1
REMARK VINA RESULT:    -3.352      0.000      0.000
REMARK INTER + INTRA:          -3.548
REMARK INTER:                  -3.548
REMARK INTRA:                   0.000
REMARK UNBOUND:                 0.000
REMARK  1 active torsions:
REMARK  status: ('A' for Active; 'I' for Inactive)
REMARK    1  A    between atoms: C_3  and  C_4 
ROOT
HETATM    1 Br   UNK     0      21.089  36.458   1.936  0.00  0.00    -0.096 Br
HETATM    2  C   UNK     0      19.659  35.435   2.769  0.00  0.00     0.096 C 
ENDROOT
BRANCH   2   3
HETATM    3  C   UNK     0      18.746  36.369   3.523  0.00  0.00     0.096 C 
HETATM    4 Br   UNK     0      19.689  37.096   5.062  0.00  0.00    -0.096 Br
ENDBRANCH   2   3
TORSDOF 1
ENDMDL
