MODEL 7
REMARK VINA RESULT:    -1.591      2.216      3.130
REMARK INTER + INTRA:          -1.684
REMARK INTER:                  -1.684
REMARK INTRA:                   0.000
REMARK UNBOUND:                 0.000
REMARK  1 active torsions:
REMARK  status: ('A' for Active; 'I' for Inactive)
REMARK    1  A    between atoms: C_3  and  C_4 
ROOT
HETATM    1 Br   UNK     0      20.661  34.289   2.121  0.00  0.00    -0.096 Br
HETATM    2  C   UNK     0      21.248  35.867   1.145  0.00  0.00     0.096 C 
ENDROOT
BRANCH   2   3
HETATM    3  C   UNK     0      20.843  37.106   1.903  0.00  0.00     0.096 C 
HETATM    4 Br   UNK     0      19.972  36.594   3.566  0.00  0.00    -0.096 Br
ENDBRANCH   2   3
TORSDOF 1
ENDMDL
