MODEL 5
REMARK VINA RESULT:    -1.675      1.685      3.456
REMARK INTER + INTRA:          -1.773
REMARK INTER:                  -1.773
REMARK INTRA:                   0.000
REMARK UNBOUND:                 0.000
REMARK  1 active torsions:
REMARK  status: ('A' for Active; 'I' for Inactive)
REMARK    1  A    between atoms: C_3  and  C_4 
ROOT
HETATM    1 Br   UNK     0      21.314  35.112   0.449  0.00  0.00    -0.096 Br
HETATM    2  C   UNK     0      21.207  36.532   1.775  0.00  0.00     0.096 C 
ENDROOT
BRANCH   2   3
HETATM    3  C   UNK     0      19.823  36.557   2.374  0.00  0.00     0.096 C 
HETATM    4 Br   UNK     0      19.956  36.733   4.308  0.00  0.00    -0.096 Br
ENDBRANCH   2   3
TORSDOF 1
ENDMDL
