MODEL 8
REMARK VINA RESULT:    -0.841      2.292      2.542
REMARK INTER + INTRA:          -0.890
REMARK INTER:                  -0.890
REMARK INTRA:                   0.000
REMARK UNBOUND:                 0.000
REMARK  1 active torsions:
REMARK  status: ('A' for Active; 'I' for Inactive)
REMARK    1  A    between atoms: C_3  and  C_4 
ROOT
HETATM    1 Br   UNK     0      19.990  34.820   2.632  0.00  0.00    -0.096 Br
HETATM    2  C   UNK     0      20.399  36.722   2.650  0.00  0.00     0.096 C 
ENDROOT
BRANCH   2   3
HETATM    3  C   UNK     0      21.367  37.039   1.537  0.00  0.00     0.096 C 
HETATM    4 Br   UNK     0      21.520  35.502   0.354  0.00  0.00    -0.096 Br
ENDBRANCH   2   3
TORSDOF 1
ENDMDL
