MODEL 8
REMARK VINA RESULT:    -1.471      2.026      2.318
REMARK INTER + INTRA:          -1.558
REMARK INTER:                  -1.558
REMARK INTRA:                   0.000
REMARK UNBOUND:                 0.000
REMARK  1 active torsions:
REMARK  status: ('A' for Active; 'I' for Inactive)
REMARK    1  A    between atoms: C_3  and  C_4 
ROOT
HETATM    1 Br   UNK     0      21.385  36.974   1.839  0.00  0.00    -0.096 Br
HETATM    2  C   UNK     0      20.103  36.887   3.300  0.00  0.00     0.096 C 
ENDROOT
BRANCH   2   3
HETATM    3  C   UNK     0      19.475  35.517   3.338  0.00  0.00     0.096 C 
HETATM    4 Br   UNK     0      20.474  34.314   2.179  0.00  0.00    -0.096 Br
ENDBRANCH   2   3
TORSDOF 1
ENDMDL
