REMARK  1 active torsions:
REMARK  status: ('A' for Active; 'I' for Inactive)
REMARK    1  A    between atoms: C_3  and  C_4 
ROOT
HETATM    1 Br   UNK     0      21.383  35.788   2.419  0.00  0.00    -0.096 Br
HETATM    2  C   UNK     0      19.819  36.878   2.810  0.00  0.00     0.096 C 
ENDROOT
BRANCH   2   3
HETATM    3  C   UNK     0      18.653  35.983   3.142  0.00  0.00     0.096 C 
HETATM    4 Br   UNK     0      17.102  37.073   3.580  0.00  0.00    -0.096 Br
ENDBRANCH   2   3
TORSDOF 1
