REMARK  1 active torsions:
REMARK  status: ('A' for Active; 'I' for Inactive)
REMARK    1  A    between atoms: C_3  and  C_4 
ROOT
HETATM    1 Br   UNK     0      25.506  33.090  -2.852  0.00  0.00    -0.096 Br
HETATM    2  C   UNK     0      25.546  31.259  -3.508  0.00  0.00     0.096 C 
ENDROOT
BRANCH   2   3
HETATM    3  C   UNK     0      24.831  31.184  -4.833  0.00  0.00     0.096 C 
HETATM    4 Br   UNK     0      23.051  31.949  -4.655  0.00  0.00    -0.096 Br
ENDBRANCH   2   3
TORSDOF 1
