REMARK  1 active torsions:
REMARK  status: ('A' for Active; 'I' for Inactive)
REMARK    1  A    between atoms: C_3  and  C_4 
ROOT
HETATM    1 Br   UNK     0      21.269  35.321   1.615  0.00  0.00    -0.096 Br
HETATM    2  C   UNK     0      20.125  36.554   2.595  0.00  0.00     0.096 C 
ENDROOT
BRANCH   2   3
HETATM    3  C   UNK     0      19.235  35.776   3.532  0.00  0.00     0.096 C 
HETATM    4 Br   UNK     0      17.816  36.935   4.188  0.00  0.00    -0.096 Br
ENDBRANCH   2   3
TORSDOF 1
