REMARK  1 active torsions:
REMARK  status: ('A' for Active; 'I' for Inactive)
REMARK    1  A    between atoms: C_3  and  C_4 
ROOT
HETATM    1 Br   UNK     0      27.826  32.512  -3.750  0.00  0.00    -0.096 Br
HETATM    2  C   UNK     0      27.085  32.444  -1.952  0.00  0.00     0.096 C 
ENDROOT
BRANCH   2   3
HETATM    3  C   UNK     0      25.783  31.684  -1.974  0.00  0.00     0.096 C 
HETATM    4 Br   UNK     0      24.384  32.814  -2.719  0.00  0.00    -0.096 Br
ENDBRANCH   2   3
TORSDOF 1
