REMARK  1 active torsions:
REMARK  status: ('A' for Active; 'I' for Inactive)
REMARK    1  A    between atoms: C_3  and  C_4 
ROOT
HETATM    1 Br   UNK     0      21.126  35.419   1.736  0.00  0.00    -0.096 Br
HETATM    2  C   UNK     0      20.191  36.688   2.877  0.00  0.00     0.096 C 
ENDROOT
BRANCH   2   3
HETATM    3  C   UNK     0      19.152  35.960   3.693  0.00  0.00     0.096 C 
HETATM    4 Br   UNK     0      18.596  37.081   5.183  0.00  0.00    -0.096 Br
ENDBRANCH   2   3
TORSDOF 1
