REMARK  1 active torsions:
REMARK  status: ('A' for Active; 'I' for Inactive)
REMARK    1  A    between atoms: C_3  and  C_4 
ROOT
HETATM    1 Br   UNK     0      20.765  35.150   1.780  0.00  0.00    -0.096 Br
HETATM    2  C   UNK     0      19.940  36.568   2.827  0.00  0.00     0.096 C 
ENDROOT
BRANCH   2   3
HETATM    3  C   UNK     0      18.837  35.990   3.677  0.00  0.00     0.096 C 
HETATM    4 Br   UNK     0      18.693  37.004   5.331  0.00  0.00    -0.096 Br
ENDBRANCH   2   3
TORSDOF 1
