REMARK  1 active torsions:
REMARK  status: ('A' for Active; 'I' for Inactive)
REMARK    1  A    between atoms: C_3  and  C_4 
ROOT
HETATM    1 Br   UNK     0      23.521  33.222  -2.390  0.00  0.00    -0.096 Br
HETATM    2  C   UNK     0      24.835  32.217  -3.414  0.00  0.00     0.096 C 
ENDROOT
BRANCH   2   3
HETATM    3  C   UNK     0      25.552  31.252  -2.504  0.00  0.00     0.096 C 
HETATM    4 Br   UNK     0      26.867  30.249  -3.528  0.00  0.00    -0.096 Br
ENDBRANCH   2   3
TORSDOF 1
