REMARK  1 active torsions:
REMARK  status: ('A' for Active; 'I' for Inactive)
REMARK    1  A    between atoms: C_3  and  C_4 
ROOT
HETATM    1 Br   UNK     0      23.193  35.309   1.833  0.00  0.00    -0.096 Br
HETATM    2  C   UNK     0      21.376  36.005   1.805  0.00  0.00     0.096 C 
ENDROOT
BRANCH   2   3
HETATM    3  C   UNK     0      20.398  34.857   1.805  0.00  0.00     0.096 C 
HETATM    4 Br   UNK     0      18.581  35.553   1.833  0.00  0.00    -0.096 Br
ENDBRANCH   2   3
TORSDOF 1
