MODEL 3
REMARK VINA RESULT:    -3.300      1.686      1.686
REMARK INTER + INTRA:          -3.493
REMARK INTER:                  -3.493
REMARK INTRA:                   0.000
REMARK UNBOUND:                 0.000
REMARK  1 active torsions:
REMARK  status: ('A' for Active; 'I' for Inactive)
REMARK    1  A    between atoms: C_3  and  C_4 
ROOT
HETATM    1 Br   UNK     0      17.399  36.926   2.504  0.00  0.00    -0.096 Br
HETATM    2  C   UNK     0      18.839  36.163   3.568  0.00  0.00     0.096 C 
ENDROOT
BRANCH   2   3
HETATM    3  C   UNK     0      19.743  35.346   2.679  0.00  0.00     0.096 C 
HETATM    4 Br   UNK     0      21.031  36.517   1.811  0.00  0.00    -0.096 Br
ENDBRANCH   2   3
TORSDOF 1
ENDMDL
