MODEL 1
REMARK VINA RESULT:    -3.294      0.000      0.000
REMARK INTER + INTRA:          -3.487
REMARK INTER:                  -3.487
REMARK INTRA:                   0.000
REMARK UNBOUND:                 0.000
REMARK  1 active torsions:
REMARK  status: ('A' for Active; 'I' for Inactive)
REMARK    1  A    between atoms: C_3  and  C_4 
ROOT
HETATM    1 Br   UNK     0      17.359  36.915   2.460  0.00  0.00    -0.096 Br
HETATM    2  C   UNK     0      18.837  36.263   3.544  0.00  0.00     0.096 C 
ENDROOT
BRANCH   2   3
HETATM    3  C   UNK     0      19.740  35.402   2.697  0.00  0.00     0.096 C 
HETATM    4 Br   UNK     0      21.054  36.525   1.803  0.00  0.00    -0.096 Br
ENDBRANCH   2   3
TORSDOF 1
ENDMDL
