MODEL 1
REMARK VINA RESULT:    -3.139      0.000      0.000
REMARK INTER + INTRA:          -3.323
REMARK INTER:                  -3.323
REMARK INTRA:                   0.000
REMARK UNBOUND:                 0.000
REMARK  1 active torsions:
REMARK  status: ('A' for Active; 'I' for Inactive)
REMARK    1  A    between atoms: C_3  and  C_4 
ROOT
HETATM    1 Br   UNK     0      17.814  36.935   2.532  0.00  0.00    -0.096 Br
HETATM    2  C   UNK     0      19.077  35.817   3.504  0.00  0.00     0.096 C 
ENDROOT
BRANCH   2   3
HETATM    3  C   UNK     0      20.042  35.188   2.531  0.00  0.00     0.096 C 
HETATM    4 Br   UNK     0      21.192  36.564   1.776  0.00  0.00    -0.096 Br
ENDBRANCH   2   3
TORSDOF 1
ENDMDL
