MODEL 1
REMARK VINA RESULT:    -3.076      0.000      0.000
REMARK INTER + INTRA:          -3.256
REMARK INTER:                  -3.256
REMARK INTRA:                   0.000
REMARK UNBOUND:                 0.000
REMARK  1 active torsions:
REMARK  status: ('A' for Active; 'I' for Inactive)
REMARK    1  A    between atoms: C_3  and  C_4 
ROOT
HETATM    1 Br   UNK     0      17.873  36.785   2.628  0.00  0.00    -0.096 Br
HETATM    2  C   UNK     0      19.278  35.726   3.459  0.00  0.00     0.096 C 
ENDROOT
BRANCH   2   3
HETATM    3  C   UNK     0      20.113  35.069   2.388  0.00  0.00     0.096 C 
HETATM    4 Br   UNK     0      21.251  36.403   1.544  0.00  0.00    -0.096 Br
ENDBRANCH   2   3
TORSDOF 1
ENDMDL
