MODEL 1
REMARK VINA RESULT:    -3.340      0.000      0.000
REMARK INTER + INTRA:          -3.535
REMARK INTER:                  -3.535
REMARK INTRA:                   0.000
REMARK UNBOUND:                 0.000
REMARK  1 active torsions:
REMARK  status: ('A' for Active; 'I' for Inactive)
REMARK    1  A    between atoms: C_3  and  C_4 
ROOT
HETATM    1 Br   UNK     0      20.873  36.550   1.836  0.00  0.00    -0.096 Br
HETATM    2  C   UNK     0      19.701  35.411   2.891  0.00  0.00     0.096 C 
ENDROOT
BRANCH   2   3
HETATM    3  C   UNK     0      18.747  36.269   3.685  0.00  0.00     0.096 C 
HETATM    4 Br   UNK     0      19.700  37.102   5.162  0.00  0.00    -0.096 Br
ENDBRANCH   2   3
TORSDOF 1
ENDMDL
