MODEL 1
REMARK VINA RESULT:    -3.189      0.000      0.000
REMARK INTER + INTRA:          -3.376
REMARK INTER:                  -3.376
REMARK INTRA:                   0.000
REMARK UNBOUND:                 0.000
REMARK  1 active torsions:
REMARK  status: ('A' for Active; 'I' for Inactive)
REMARK    1  A    between atoms: C_3  and  C_4 
ROOT
HETATM    1 Br   UNK     0      17.551  36.874   2.348  0.00  0.00    -0.096 Br
HETATM    2  C   UNK     0      18.666  36.271   3.824  0.00  0.00     0.096 C 
ENDROOT
BRANCH   2   3
HETATM    3  C   UNK     0      20.116  36.512   3.490  0.00  0.00     0.096 C 
HETATM    4 Br   UNK     0      20.634  35.380   1.993  0.00  0.00    -0.096 Br
ENDBRANCH   2   3
TORSDOF 1
ENDMDL
