MODEL 1
REMARK VINA RESULT:    -3.311      0.000      0.000
REMARK INTER + INTRA:          -3.504
REMARK INTER:                  -3.504
REMARK INTRA:                   0.000
REMARK UNBOUND:                 0.000
REMARK  1 active torsions:
REMARK  status: ('A' for Active; 'I' for Inactive)
REMARK    1  A    between atoms: C_3  and  C_4 
ROOT
HETATM    1 Br   UNK     0      19.441  37.053   5.236  0.00  0.00    -0.096 Br
HETATM    2  C   UNK     0      18.699  36.600   3.495  0.00  0.00     0.096 C 
ENDROOT
BRANCH   2   3
HETATM    3  C   UNK     0      19.540  35.525   2.854  0.00  0.00     0.096 C 
HETATM    4 Br   UNK     0      21.018  36.347   1.890  0.00  0.00    -0.096 Br
ENDBRANCH   2   3
TORSDOF 1
ENDMDL
