MODEL 1
REMARK VINA RESULT:    -2.239      0.000      0.000
REMARK INTER + INTRA:          -2.370
REMARK INTER:                  -2.370
REMARK INTRA:                   0.000
REMARK UNBOUND:                 0.000
REMARK  1 active torsions:
REMARK  status: ('A' for Active; 'I' for Inactive)
REMARK    1  A    between atoms: C_3  and  C_4 
ROOT
HETATM    1 Br   UNK     0      17.953  36.914   2.211  0.00  0.00    -0.096 Br
HETATM    2  C   UNK     0      19.124  35.833   3.327  0.00  0.00     0.096 C 
ENDROOT
BRANCH   2   3
HETATM    3  C   UNK     0      20.116  35.104   2.455  0.00  0.00     0.096 C 
HETATM    4 Br   UNK     0      21.284  36.393   1.584  0.00  0.00    -0.096 Br
ENDBRANCH   2   3
TORSDOF 1
ENDMDL
