MODEL 1
REMARK VINA RESULT:    -3.274      0.000      0.000
REMARK INTER + INTRA:          -3.466
REMARK INTER:                  -3.466
REMARK INTRA:                   0.000
REMARK UNBOUND:                 0.000
REMARK  1 active torsions:
REMARK  status: ('A' for Active; 'I' for Inactive)
REMARK    1  A    between atoms: C_3  and  C_4 
ROOT
HETATM    1 Br   UNK     0      17.442  36.985   2.189  0.00  0.00    -0.096 Br
HETATM    2  C   UNK     0      18.664  36.285   3.531  0.00  0.00     0.096 C 
ENDROOT
BRANCH   2   3
HETATM    3  C   UNK     0      19.701  35.416   2.863  0.00  0.00     0.096 C 
HETATM    4 Br   UNK     0      20.895  36.530   1.805  0.00  0.00    -0.096 Br
ENDBRANCH   2   3
TORSDOF 1
ENDMDL
