MODEL 1
REMARK VINA RESULT:    -3.288      0.000      0.000
REMARK INTER + INTRA:          -3.480
REMARK INTER:                  -3.480
REMARK INTRA:                   0.000
REMARK UNBOUND:                 0.000
REMARK  1 active torsions:
REMARK  status: ('A' for Active; 'I' for Inactive)
REMARK    1  A    between atoms: C_3  and  C_4 
ROOT
HETATM    1 Br   UNK     0      17.370  36.902   3.119  0.00  0.00    -0.096 Br
HETATM    2  C   UNK     0      19.025  36.108   3.764  0.00  0.00     0.096 C 
ENDROOT
BRANCH   2   3
HETATM    3  C   UNK     0      19.696  35.362   2.638  0.00  0.00     0.096 C 
HETATM    4 Br   UNK     0      21.071  36.486   1.843  0.00  0.00    -0.096 Br
ENDBRANCH   2   3
TORSDOF 1
ENDMDL
