MODEL 1
REMARK VINA RESULT:    -2.378      0.000      0.000
REMARK INTER + INTRA:          -2.517
REMARK INTER:                  -2.517
REMARK INTRA:                   0.000
REMARK UNBOUND:                 0.000
REMARK  1 active torsions:
REMARK  status: ('A' for Active; 'I' for Inactive)
REMARK    1  A    between atoms: C_3  and  C_4 
ROOT
HETATM    1 Br   UNK     0      18.362  36.974   2.264  0.00  0.00    -0.096 Br
HETATM    2  C   UNK     0      19.433  35.498   2.945  0.00  0.00     0.096 C 
ENDROOT
BRANCH   2   3
HETATM    3  C   UNK     0      20.443  35.088   1.903  0.00  0.00     0.096 C 
HETATM    4 Br   UNK     0      21.418  36.657   1.292  0.00  0.00    -0.096 Br
ENDBRANCH   2   3
TORSDOF 1
ENDMDL
