MODEL 1
REMARK VINA RESULT:    -3.361      0.000      0.000
REMARK INTER + INTRA:          -3.557
REMARK INTER:                  -3.557
REMARK INTRA:                   0.000
REMARK UNBOUND:                 0.000
REMARK  1 active torsions:
REMARK  status: ('A' for Active; 'I' for Inactive)
REMARK    1  A    between atoms: C_3  and  C_4 
ROOT
HETATM    1 Br   UNK     0      20.942  36.537   1.786  0.00  0.00    -0.096 Br
HETATM    2  C   UNK     0      19.698  35.436   2.801  0.00  0.00     0.096 C 
ENDROOT
BRANCH   2   3
HETATM    3  C   UNK     0      18.672  36.319   3.465  0.00  0.00     0.096 C 
HETATM    4 Br   UNK     0      19.397  37.016   5.131  0.00  0.00    -0.096 Br
ENDBRANCH   2   3
TORSDOF 1
ENDMDL
