MODEL 1
REMARK VINA RESULT:    -3.182      0.000      0.000
REMARK INTER + INTRA:          -3.368
REMARK INTER:                  -3.368
REMARK INTRA:                   0.000
REMARK UNBOUND:                 0.000
REMARK  1 active torsions:
REMARK  status: ('A' for Active; 'I' for Inactive)
REMARK    1  A    between atoms: C_3  and  C_4 
ROOT
HETATM    1 Br   UNK     0      17.636  36.774   2.449  0.00  0.00    -0.096 Br
HETATM    2  C   UNK     0      18.886  36.003   3.727  0.00  0.00     0.096 C 
ENDROOT
BRANCH   2   3
HETATM    3  C   UNK     0      20.212  36.712   3.623  0.00  0.00     0.096 C 
HETATM    4 Br   UNK     0      20.989  36.381   1.870  0.00  0.00    -0.096 Br
ENDBRANCH   2   3
TORSDOF 1
ENDMDL
