MODEL 8
REMARK VINA RESULT:    -2.399      1.370      3.099
REMARK INTER + INTRA:          -2.539
REMARK INTER:                  -2.539
REMARK INTRA:                   0.000
REMARK UNBOUND:                 0.000
REMARK  1 active torsions:
REMARK  status: ('A' for Active; 'I' for Inactive)
REMARK    1  A    between atoms: C_3  and  C_4 
ROOT
HETATM    1 Br   UNK     0      21.043  34.791   1.693  0.00  0.00    -0.096 Br
HETATM    2  C   UNK     0      20.489  36.113   3.010  0.00  0.00     0.096 C 
ENDROOT
BRANCH   2   3
HETATM    3  C   UNK     0      19.036  36.457   2.796  0.00  0.00     0.096 C 
HETATM    4 Br   UNK     0      18.229  36.949   4.497  0.00  0.00    -0.096 Br
ENDBRANCH   2   3
TORSDOF 1
ENDMDL
