MODEL 6
REMARK VINA RESULT:    -2.721      1.011      2.938
REMARK INTER + INTRA:          -2.880
REMARK INTER:                  -2.880
REMARK INTRA:                   0.000
REMARK UNBOUND:                 0.000
REMARK  1 active torsions:
REMARK  status: ('A' for Active; 'I' for Inactive)
REMARK    1  A    between atoms: C_3  and  C_4 
ROOT
HETATM    1 Br   UNK     0      21.030  35.296   1.221  0.00  0.00    -0.096 Br
HETATM    2  C   UNK     0      20.449  36.495   2.639  0.00  0.00     0.096 C 
ENDROOT
BRANCH   2   3
HETATM    3  C   UNK     0      19.220  35.929   3.304  0.00  0.00     0.096 C 
HETATM    4 Br   UNK     0      17.637  36.826   2.615  0.00  0.00    -0.096 Br
ENDBRANCH   2   3
TORSDOF 1
ENDMDL
