REMARK  1 active torsions:
REMARK  status: ('A' for Active; 'I' for Inactive)
REMARK    1  A    between atoms: C_3  and  C_4 
ROOT
HETATM    1 Br   UNK     0      21.165  35.418   1.861  0.00  0.00    -0.096 Br
HETATM    2  C   UNK     0      19.846  36.697   2.502  0.00  0.00     0.096 C 
ENDROOT
BRANCH   2   3
HETATM    3  C   UNK     0      18.840  35.989   3.374  0.00  0.00     0.096 C 
HETATM    4 Br   UNK     0      17.888  37.294   4.459  0.00  0.00    -0.096 Br
ENDBRANCH   2   3
TORSDOF 1
