MODEL 8
REMARK VINA RESULT:    -1.819      1.734      1.898
REMARK INTER + INTRA:          -1.926
REMARK INTER:                  -1.926
REMARK INTRA:                   0.000
REMARK UNBOUND:                 0.000
REMARK  1 active torsions:
REMARK  status: ('A' for Active; 'I' for Inactive)
REMARK    1  A    between atoms: C_3  and  C_4 
ROOT
HETATM    1 Br   UNK     0      18.410  36.610   2.595  0.00  0.00    -0.096 Br
HETATM    2  C   UNK     0      19.782  35.257   2.866  0.00  0.00     0.096 C 
ENDROOT
BRANCH   2   3
HETATM    3  C   UNK     0      21.145  35.888   2.728  0.00  0.00     0.096 C 
HETATM    4 Br   UNK     0      21.209  36.940   1.093  0.00  0.00    -0.096 Br
ENDBRANCH   2   3
TORSDOF 1
ENDMDL
