REMARK  1 active torsions:
REMARK  status: ('A' for Active; 'I' for Inactive)
REMARK    1  A    between atoms: C_3  and  C_4 
ROOT
HETATM    1 Br   UNK     0      21.471  35.714   2.313  0.00  0.00    -0.096 Br
HETATM    2  C   UNK     0      20.141  36.803   3.224  0.00  0.00     0.096 C 
ENDROOT
BRANCH   2   3
HETATM    3  C   UNK     0      19.078  35.910   3.812  0.00  0.00     0.096 C 
HETATM    4 Br   UNK     0      17.733  37.000   4.701  0.00  0.00    -0.096 Br
ENDBRANCH   2   3
TORSDOF 1
