REMARK  1 active torsions:
REMARK  status: ('A' for Active; 'I' for Inactive)
REMARK    1  A    between atoms: C_3  and  C_4 
ROOT
HETATM    1 Br   UNK     0      21.196  35.446   1.978  0.00  0.00    -0.096 Br
HETATM    2  C   UNK     0      19.892  36.685   2.718  0.00  0.00     0.096 C 
ENDROOT
BRANCH   2   3
HETATM    3  C   UNK     0      18.935  35.935   3.611  0.00  0.00     0.096 C 
HETATM    4 Br   UNK     0      17.765  37.200   4.516  0.00  0.00    -0.096 Br
ENDBRANCH   2   3
TORSDOF 1
