REMARK  1 active torsions:
REMARK  status: ('A' for Active; 'I' for Inactive)
REMARK    1  A    between atoms: C_3  and  C_4 
ROOT
HETATM    1 Br   UNK     0      26.145  32.829  -4.100  0.00  0.00    -0.096 Br
HETATM    2  C   UNK     0      27.155  32.576  -2.456  0.00  0.00     0.096 C 
ENDROOT
BRANCH   2   3
HETATM    3  C   UNK     0      27.817  31.221  -2.477  0.00  0.00     0.096 C 
HETATM    4 Br   UNK     0      26.804  29.988  -1.362  0.00  0.00    -0.096 Br
ENDBRANCH   2   3
TORSDOF 1
