MODEL 3
REMARK VINA RESULT:    -3.301      1.681      1.681
REMARK INTER + INTRA:          -3.493
REMARK INTER:                  -3.493
REMARK INTRA:                   0.000
REMARK UNBOUND:                 0.000
REMARK  1 active torsions:
REMARK  status: ('A' for Active; 'I' for Inactive)
REMARK    1  A    between atoms: C_3  and  C_4 
ROOT
HETATM    1 Br   UNK     0      17.447  36.944   2.484  0.00  0.00    -0.096 Br
HETATM    2  C   UNK     0      18.830  36.136   3.589  0.00  0.00     0.096 C 
ENDROOT
BRANCH   2   3
HETATM    3  C   UNK     0      19.772  35.344   2.716  0.00  0.00     0.096 C 
HETATM    4 Br   UNK     0      20.999  36.558   1.818  0.00  0.00    -0.096 Br
ENDBRANCH   2   3
TORSDOF 1
ENDMDL
