MODEL 9
REMARK VINA RESULT:    -1.473      2.209      2.303
REMARK INTER + INTRA:          -1.559
REMARK INTER:                  -1.559
REMARK INTRA:                   0.000
REMARK UNBOUND:                 0.000
REMARK  1 active torsions:
REMARK  status: ('A' for Active; 'I' for Inactive)
REMARK    1  A    between atoms: C_3  and  C_4 
ROOT
HETATM    1 Br   UNK     0      20.720  34.288   2.184  0.00  0.00    -0.096 Br
HETATM    2  C   UNK     0      19.474  35.484   3.080  0.00  0.00     0.096 C 
ENDROOT
BRANCH   2   3
HETATM    3  C   UNK     0      19.572  36.860   2.471  0.00  0.00     0.096 C 
HETATM    4 Br   UNK     0      21.158  36.961   1.349  0.00  0.00    -0.096 Br
ENDBRANCH   2   3
TORSDOF 1
ENDMDL
