MODEL 3
REMARK VINA RESULT:    -3.298      1.745      2.814
REMARK INTER + INTRA:          -3.491
REMARK INTER:                  -3.491
REMARK INTRA:                   0.000
REMARK UNBOUND:                 0.000
REMARK  1 active torsions:
REMARK  status: ('A' for Active; 'I' for Inactive)
REMARK    1  A    between atoms: C_3  and  C_4 
ROOT
HETATM    1 Br   UNK     0      17.387  36.940   2.481  0.00  0.00    -0.096 Br
HETATM    2  C   UNK     0      18.859  36.221   3.531  0.00  0.00     0.096 C 
ENDROOT
BRANCH   2   3
HETATM    3  C   UNK     0      19.748  35.386   2.645  0.00  0.00     0.096 C 
HETATM    4 Br   UNK     0      21.074  36.529   1.795  0.00  0.00    -0.096 Br
ENDBRANCH   2   3
TORSDOF 1
ENDMDL
