REMARK  1 active torsions:
REMARK  status: ('A' for Active; 'I' for Inactive)
REMARK    1  A    between atoms: C_3  and  C_4 
ROOT
HETATM    1 Br   UNK     0      20.933  34.839   1.544  0.00  0.00    -0.096 Br
HETATM    2  C   UNK     0      20.925  36.586   2.401  0.00  0.00     0.096 C 
ENDROOT
BRANCH   2   3
HETATM    3  C   UNK     0      20.145  36.511   3.690  0.00  0.00     0.096 C 
HETATM    4 Br   UNK     0      18.247  36.352   3.291  0.00  0.00    -0.096 Br
ENDBRANCH   2   3
TORSDOF 1
