REMARK  1 active torsions:
REMARK  status: ('A' for Active; 'I' for Inactive)
REMARK    1  A    between atoms: C_3  and  C_4 
ROOT
HETATM    1 Br   UNK     0      25.920  33.160  -2.425  0.00  0.00    -0.096 Br
HETATM    2  C   UNK     0      24.282  33.092  -3.473  0.00  0.00     0.096 C 
ENDROOT
BRANCH   2   3
HETATM    3  C   UNK     0      24.129  31.718  -4.078  0.00  0.00     0.096 C 
HETATM    4 Br   UNK     0      22.483  31.645  -5.112  0.00  0.00    -0.096 Br
ENDBRANCH   2   3
TORSDOF 1
