REMARK  1 active torsions:
REMARK  status: ('A' for Active; 'I' for Inactive)
REMARK    1  A    between atoms: C_3  and  C_4 
ROOT
HETATM    1 Br   UNK     0      24.038  34.382  -2.042  0.00  0.00    -0.096 Br
HETATM    2  C   UNK     0      22.732  35.607  -1.280  0.00  0.00     0.096 C 
ENDROOT
BRANCH   2   3
HETATM    3  C   UNK     0      21.813  34.850  -0.355  0.00  0.00     0.096 C 
HETATM    4 Br   UNK     0      21.544  35.878   1.275  0.00  0.00    -0.096 Br
ENDBRANCH   2   3
TORSDOF 1
