MODEL 8
REMARK VINA RESULT:    -1.241      1.278      2.671
REMARK INTER + INTRA:          -1.314
REMARK INTER:                  -1.314
REMARK INTRA:                   0.000
REMARK UNBOUND:                 0.000
REMARK  1 active torsions:
REMARK  status: ('A' for Active; 'I' for Inactive)
REMARK    1  A    between atoms: C_3  and  C_4 
ROOT
HETATM    1 Br   UNK     0      20.014  37.417   3.561  0.00  0.00    -0.096 Br
HETATM    2  C   UNK     0      19.014  35.831   3.041  0.00  0.00     0.096 C 
ENDROOT
BRANCH   2   3
HETATM    3  C   UNK     0      19.753  35.108   1.943  0.00  0.00     0.096 C 
HETATM    4 Br   UNK     0      21.329  36.133   1.439  0.00  0.00    -0.096 Br
ENDBRANCH   2   3
TORSDOF 1
ENDMDL
