MODEL 7
REMARK VINA RESULT:    -1.998      1.459      1.525
REMARK INTER + INTRA:          -2.115
REMARK INTER:                  -2.115
REMARK INTRA:                   0.000
REMARK UNBOUND:                 0.000
REMARK  1 active torsions:
REMARK  status: ('A' for Active; 'I' for Inactive)
REMARK    1  A    between atoms: C_3  and  C_4 
ROOT
HETATM    1 Br   UNK     0      21.523  35.574   0.578  0.00  0.00    -0.096 Br
HETATM    2  C   UNK     0      21.222  36.130   2.418  0.00  0.00     0.096 C 
ENDROOT
BRANCH   2   3
HETATM    3  C   UNK     0      19.809  36.637   2.565  0.00  0.00     0.096 C 
HETATM    4 Br   UNK     0      19.241  36.446   4.416  0.00  0.00    -0.096 Br
ENDBRANCH   2   3
TORSDOF 1
ENDMDL
