MODEL 8
REMARK VINA RESULT:    -1.501      2.112      2.215
REMARK INTER + INTRA:          -1.589
REMARK INTER:                  -1.589
REMARK INTRA:                   0.000
REMARK UNBOUND:                 0.000
REMARK  1 active torsions:
REMARK  status: ('A' for Active; 'I' for Inactive)
REMARK    1  A    between atoms: C_3  and  C_4 
ROOT
HETATM    1 Br   UNK     0      20.065  36.728   3.729  0.00  0.00    -0.096 Br
HETATM    2  C   UNK     0      20.537  37.069   1.872  0.00  0.00     0.096 C 
ENDROOT
BRANCH   2   3
HETATM    3  C   UNK     0      21.268  35.875   1.312  0.00  0.00     0.096 C 
HETATM    4 Br   UNK     0      20.631  34.256   2.184  0.00  0.00    -0.096 Br
ENDBRANCH   2   3
TORSDOF 1
ENDMDL
