MODEL 7
REMARK VINA RESULT:    -1.901      1.848      3.401
REMARK INTER + INTRA:          -2.012
REMARK INTER:                  -2.012
REMARK INTRA:                   0.000
REMARK UNBOUND:                 0.000
REMARK  1 active torsions:
REMARK  status: ('A' for Active; 'I' for Inactive)
REMARK    1  A    between atoms: C_3  and  C_4 
ROOT
HETATM    1 Br   UNK     0      21.480  35.479   0.470  0.00  0.00    -0.096 Br
HETATM    2  C   UNK     0      20.684  36.809   1.647  0.00  0.00     0.096 C 
ENDROOT
BRANCH   2   3
HETATM    3  C   UNK     0      20.490  36.214   3.019  0.00  0.00     0.096 C 
HETATM    4 Br   UNK     0      18.610  36.316   3.511  0.00  0.00    -0.096 Br
ENDBRANCH   2   3
TORSDOF 1
ENDMDL
