MODEL 6
REMARK VINA RESULT:    -1.068      2.164      2.372
REMARK INTER + INTRA:          -1.130
REMARK INTER:                  -1.130
REMARK INTRA:                   0.000
REMARK UNBOUND:                 0.000
REMARK  1 active torsions:
REMARK  status: ('A' for Active; 'I' for Inactive)
REMARK    1  A    between atoms: C_3  and  C_4 
ROOT
HETATM    1 Br   UNK     0      19.561  35.228   2.983  0.00  0.00    -0.096 Br
HETATM    2  C   UNK     0      20.575  36.888   3.047  0.00  0.00     0.096 C 
ENDROOT
BRANCH   2   3
HETATM    3  C   UNK     0      21.464  36.981   1.833  0.00  0.00     0.096 C 
HETATM    4 Br   UNK     0      21.234  35.389   0.737  0.00  0.00    -0.096 Br
ENDBRANCH   2   3
TORSDOF 1
ENDMDL
