REMARK  1 active torsions:
REMARK  status: ('A' for Active; 'I' for Inactive)
REMARK    1  A    between atoms: C_3  and  C_4 
ROOT
HETATM    1 Br   UNK     0      26.597  32.536  -2.297  0.00  0.00    -0.096 Br
HETATM    2  C   UNK     0      24.792  32.671  -3.010  0.00  0.00     0.096 C 
ENDROOT
BRANCH   2   3
HETATM    3  C   UNK     0      24.552  31.547  -3.986  0.00  0.00     0.096 C 
HETATM    4 Br   UNK     0      22.976  31.944  -5.058  0.00  0.00    -0.096 Br
ENDBRANCH   2   3
TORSDOF 1
