REMARK  1 active torsions:
REMARK  status: ('A' for Active; 'I' for Inactive)
REMARK    1  A    between atoms: C_3  and  C_4 
ROOT
HETATM    1 Br   UNK     0      23.054  33.604  -1.879  0.00  0.00    -0.096 Br
HETATM    2  C   UNK     0      22.372  35.192  -0.985  0.00  0.00     0.096 C 
ENDROOT
BRANCH   2   3
HETATM    3  C   UNK     0      21.577  34.783   0.231  0.00  0.00     0.096 C 
HETATM    4 Br   UNK     0      21.588  36.232   1.530  0.00  0.00    -0.096 Br
ENDBRANCH   2   3
TORSDOF 1
