REMARK  1 active torsions:
REMARK  status: ('A' for Active; 'I' for Inactive)
REMARK    1  A    between atoms: C_3  and  C_4 
ROOT
HETATM    1 Br   UNK     0      26.023  33.086  -2.481  0.00  0.00    -0.096 Br
HETATM    2  C   UNK     0      24.561  32.958  -3.760  0.00  0.00     0.096 C 
ENDROOT
BRANCH   2   3
HETATM    3  C   UNK     0      24.624  31.625  -4.462  0.00  0.00     0.096 C 
HETATM    4 Br   UNK     0      23.159  31.494  -5.737  0.00  0.00    -0.096 Br
ENDBRANCH   2   3
TORSDOF 1
