REMARK  1 active torsions:
REMARK  status: ('A' for Active; 'I' for Inactive)
REMARK    1  A    between atoms: C_3  and  C_4 
ROOT
HETATM    1 Br   UNK     0      21.182  35.724   2.170  0.00  0.00    -0.096 Br
HETATM    2  C   UNK     0      19.881  36.951   2.938  0.00  0.00     0.096 C 
ENDROOT
BRANCH   2   3
HETATM    3  C   UNK     0      18.730  36.166   3.514  0.00  0.00     0.096 C 
HETATM    4 Br   UNK     0      17.594  37.353   4.556  0.00  0.00    -0.096 Br
ENDBRANCH   2   3
TORSDOF 1
