REMARK  1 active torsions:
REMARK  status: ('A' for Active; 'I' for Inactive)
REMARK    1  A    between atoms: C_3  and  C_4 
ROOT
HETATM    1 Br   UNK     0      20.977  35.613   2.089  0.00  0.00    -0.096 Br
HETATM    2  C   UNK     0      19.752  36.860   2.946  0.00  0.00     0.096 C 
ENDROOT
BRANCH   2   3
HETATM    3  C   UNK     0      18.676  36.089   3.670  0.00  0.00     0.096 C 
HETATM    4 Br   UNK     0      17.594  37.319   4.722  0.00  0.00    -0.096 Br
ENDBRANCH   2   3
TORSDOF 1
