REMARK  1 active torsions:
REMARK  status: ('A' for Active; 'I' for Inactive)
REMARK    1  A    between atoms: C_3  and  C_4 
ROOT
HETATM    1 Br   UNK     0      21.105  35.660   1.930  0.00  0.00    -0.096 Br
HETATM    2  C   UNK     0      20.257  36.880   3.187  0.00  0.00     0.096 C 
ENDROOT
BRANCH   2   3
HETATM    3  C   UNK     0      19.118  36.175   3.880  0.00  0.00     0.096 C 
HETATM    4 Br   UNK     0      18.777  37.028   5.596  0.00  0.00    -0.096 Br
ENDBRANCH   2   3
TORSDOF 1
