MODEL 2
REMARK VINA RESULT:    -3.299      1.944      1.963
REMARK INTER + INTRA:          -3.492
REMARK INTER:                  -3.492
REMARK INTRA:                   0.000
REMARK UNBOUND:                 0.000
REMARK  1 active torsions:
REMARK  status: ('A' for Active; 'I' for Inactive)
REMARK    1  A    between atoms: C_3  and  C_4 
ROOT
HETATM    1 Br   UNK     0      17.400  36.928   2.425  0.00  0.00    -0.096 Br
HETATM    2  C   UNK     0      18.807  36.197   3.553  0.00  0.00     0.096 C 
ENDROOT
BRANCH   2   3
HETATM    3  C   UNK     0      19.744  35.366   2.713  0.00  0.00     0.096 C 
HETATM    4 Br   UNK     0      21.022  36.532   1.820  0.00  0.00    -0.096 Br
ENDBRANCH   2   3
TORSDOF 1
ENDMDL
