MODEL 7
REMARK VINA RESULT:    -1.913      1.356      2.907
REMARK INTER + INTRA:          -2.025
REMARK INTER:                  -2.025
REMARK INTRA:                   0.000
REMARK UNBOUND:                 0.000
REMARK  1 active torsions:
REMARK  status: ('A' for Active; 'I' for Inactive)
REMARK    1  A    between atoms: C_3  and  C_4 
ROOT
HETATM    1 Br   UNK     0      20.441  37.114   3.832  0.00  0.00    -0.096 Br
HETATM    2  C   UNK     0      19.539  35.453   3.369  0.00  0.00     0.096 C 
ENDROOT
BRANCH   2   3
HETATM    3  C   UNK     0      20.062  34.949   2.048  0.00  0.00     0.096 C 
HETATM    4 Br   UNK     0      21.232  36.289   1.259  0.00  0.00    -0.096 Br
ENDBRANCH   2   3
TORSDOF 1
ENDMDL
