MODEL 8
REMARK VINA RESULT:    -1.530      2.173      2.426
REMARK INTER + INTRA:          -1.619
REMARK INTER:                  -1.619
REMARK INTRA:                   0.000
REMARK UNBOUND:                 0.000
REMARK  1 active torsions:
REMARK  status: ('A' for Active; 'I' for Inactive)
REMARK    1  A    between atoms: C_3  and  C_4 
ROOT
HETATM    1 Br   UNK     0      21.328  37.034   1.612  0.00  0.00    -0.096 Br
HETATM    2  C   UNK     0      20.102  36.890   3.116  0.00  0.00     0.096 C 
ENDROOT
BRANCH   2   3
HETATM    3  C   UNK     0      19.525  35.497   3.162  0.00  0.00     0.096 C 
HETATM    4 Br   UNK     0      20.568  34.324   2.012  0.00  0.00    -0.096 Br
ENDBRANCH   2   3
TORSDOF 1
ENDMDL
