MODEL 7
REMARK VINA RESULT:    -1.539      2.225      2.448
REMARK INTER + INTRA:          -1.629
REMARK INTER:                  -1.629
REMARK INTRA:                   0.000
REMARK UNBOUND:                 0.000
REMARK  1 active torsions:
REMARK  status: ('A' for Active; 'I' for Inactive)
REMARK    1  A    between atoms: C_3  and  C_4 
ROOT
HETATM    1 Br   UNK     0      21.292  36.981   1.533  0.00  0.00    -0.096 Br
HETATM    2  C   UNK     0      20.010  36.862   2.991  0.00  0.00     0.096 C 
ENDROOT
BRANCH   2   3
HETATM    3  C   UNK     0      19.544  35.435   3.137  0.00  0.00     0.096 C 
HETATM    4 Br   UNK     0      20.648  34.277   2.029  0.00  0.00    -0.096 Br
ENDBRANCH   2   3
TORSDOF 1
ENDMDL
