REMARK  1 active torsions:
REMARK  status: ('A' for Active; 'I' for Inactive)
REMARK    1  A    between atoms: C_3  and  C_4 
ROOT
HETATM    1 Br   UNK     0      25.862  30.779  -3.940  0.00  0.00    -0.096 Br
HETATM    2  C   UNK     0      26.307  31.808  -2.349  0.00  0.00     0.096 C 
ENDROOT
BRANCH   2   3
HETATM    3  C   UNK     0      25.052  32.085  -1.562  0.00  0.00     0.096 C 
HETATM    4 Br   UNK     0      23.895  33.272  -2.579  0.00  0.00    -0.096 Br
ENDBRANCH   2   3
TORSDOF 1
