REMARK  1 active torsions:
REMARK  status: ('A' for Active; 'I' for Inactive)
REMARK    1  A    between atoms: C_3  and  C_4 
ROOT
HETATM    1 Br   UNK     0      18.450  36.764   4.394  0.00  0.00    -0.096 Br
HETATM    2  C   UNK     0      19.220  36.095   2.737  0.00  0.00     0.096 C 
ENDROOT
BRANCH   2   3
HETATM    3  C   UNK     0      20.680  36.465   2.675  0.00  0.00     0.096 C 
HETATM    4 Br   UNK     0      21.473  35.713   1.065  0.00  0.00    -0.096 Br
ENDBRANCH   2   3
TORSDOF 1
