REMARK  1 active torsions:
REMARK  status: ('A' for Active; 'I' for Inactive)
REMARK    1  A    between atoms: C_3  and  C_4 
ROOT
HETATM    1 Br   UNK     0      21.975  34.948  -0.185  0.00  0.00    -0.096 Br
HETATM    2  C   UNK     0      22.813  34.736  -1.929  0.00  0.00     0.096 C 
ENDROOT
BRANCH   2   3
HETATM    3  C   UNK     0      23.660  33.489  -1.932  0.00  0.00     0.096 C 
HETATM    4 Br   UNK     0      23.147  32.359  -3.432  0.00  0.00    -0.096 Br
ENDBRANCH   2   3
TORSDOF 1
