MODEL 3
REMARK VINA RESULT:    -3.294      1.721      1.721
REMARK INTER + INTRA:          -3.486
REMARK INTER:                  -3.486
REMARK INTRA:                   0.000
REMARK UNBOUND:                 0.000
REMARK  1 active torsions:
REMARK  status: ('A' for Active; 'I' for Inactive)
REMARK    1  A    between atoms: C_3  and  C_4 
ROOT
HETATM    1 Br   UNK     0      17.361  36.904   2.547  0.00  0.00    -0.096 Br
HETATM    2  C   UNK     0      18.854  36.236   3.601  0.00  0.00     0.096 C 
ENDROOT
BRANCH   2   3
HETATM    3  C   UNK     0      19.742  35.384   2.731  0.00  0.00     0.096 C 
HETATM    4 Br   UNK     0      21.036  36.516   1.818  0.00  0.00    -0.096 Br
ENDBRANCH   2   3
TORSDOF 1
ENDMDL
