REMARK  1 active torsions:
REMARK  status: ('A' for Active; 'I' for Inactive)
REMARK    1  A    between atoms: C_3  and  C_4 
ROOT
HETATM    1 Br   UNK     0      26.068  33.081  -2.433  0.00  0.00    -0.096 Br
HETATM    2  C   UNK     0      24.478  33.047  -3.553  0.00  0.00     0.096 C 
ENDROOT
BRANCH   2   3
HETATM    3  C   UNK     0      24.446  31.762  -4.343  0.00  0.00     0.096 C 
HETATM    4 Br   UNK     0      22.906  31.769  -5.532  0.00  0.00    -0.096 Br
ENDBRANCH   2   3
TORSDOF 1
