MODEL 6
REMARK VINA RESULT:    -1.541      2.246      2.480
REMARK INTER + INTRA:          -1.631
REMARK INTER:                  -1.631
REMARK INTRA:                   0.000
REMARK UNBOUND:                 0.000
REMARK  1 active torsions:
REMARK  status: ('A' for Active; 'I' for Inactive)
REMARK    1  A    between atoms: C_3  and  C_4 
ROOT
HETATM    1 Br   UNK     0      21.338  36.951   1.606  0.00  0.00    -0.096 Br
HETATM    2  C   UNK     0      20.075  36.870   3.085  0.00  0.00     0.096 C 
ENDROOT
BRANCH   2   3
HETATM    3  C   UNK     0      19.530  35.469   3.203  0.00  0.00     0.096 C 
HETATM    4 Br   UNK     0      20.572  34.270   2.080  0.00  0.00    -0.096 Br
ENDBRANCH   2   3
TORSDOF 1
ENDMDL
