MODEL 7
REMARK VINA RESULT:    -0.957      2.314      2.501
REMARK INTER + INTRA:          -1.013
REMARK INTER:                  -1.013
REMARK INTRA:                   0.000
REMARK UNBOUND:                 0.000
REMARK  1 active torsions:
REMARK  status: ('A' for Active; 'I' for Inactive)
REMARK    1  A    between atoms: C_3  and  C_4 
ROOT
HETATM    1 Br   UNK     0      19.587  35.451   2.967  0.00  0.00    -0.096 Br
HETATM    2  C   UNK     0      21.137  36.596   2.694  0.00  0.00     0.096 C 
ENDROOT
BRANCH   2   3
HETATM    3  C   UNK     0      21.259  36.935   1.229  0.00  0.00     0.096 C 
HETATM    4 Br   UNK     0      21.588  35.309   0.212  0.00  0.00    -0.096 Br
ENDBRANCH   2   3
TORSDOF 1
ENDMDL
