REMARK  1 active torsions:
REMARK  status: ('A' for Active; 'I' for Inactive)
REMARK    1  A    between atoms: C_3  and  C_4 
ROOT
HETATM    1 Br   UNK     0      23.584  35.193   1.047  0.00  0.00    -0.096 Br
HETATM    2  C   UNK     0      21.767  35.889   1.019  0.00  0.00     0.096 C 
ENDROOT
BRANCH   2   3
HETATM    3  C   UNK     0      20.789  34.741   1.019  0.00  0.00     0.096 C 
HETATM    4 Br   UNK     0      18.972  35.437   1.047  0.00  0.00    -0.096 Br
ENDBRANCH   2   3
TORSDOF 1
