REMARK  1 active torsions:
REMARK  status: ('A' for Active; 'I' for Inactive)
REMARK    1  A    between atoms: C_3  and  C_4 
ROOT
HETATM    1 Br   UNK     0      24.579  34.048  -2.245  0.00  0.00    -0.096 Br
HETATM    2  C   UNK     0      23.197  35.297  -1.683  0.00  0.00     0.096 C 
ENDROOT
BRANCH   2   3
HETATM    3  C   UNK     0      22.123  34.553  -0.931  0.00  0.00     0.096 C 
HETATM    4 Br   UNK     0      21.615  35.570   0.649  0.00  0.00    -0.096 Br
ENDBRANCH   2   3
TORSDOF 1
