REMARK  1 active torsions:
REMARK  status: ('A' for Active; 'I' for Inactive)
REMARK    1  A    between atoms: C_3  and  C_4 
ROOT
HETATM    1 Br   UNK     0      20.880  35.286   1.680  0.00  0.00    -0.096 Br
HETATM    2  C   UNK     0      20.374  36.680   2.939  0.00  0.00     0.096 C 
ENDROOT
BRANCH   2   3
HETATM    3  C   UNK     0      19.246  36.185   3.811  0.00  0.00     0.096 C 
HETATM    4 Br   UNK     0      19.176  37.242   5.443  0.00  0.00    -0.096 Br
ENDBRANCH   2   3
TORSDOF 1
