REMARK  1 active torsions:
REMARK  status: ('A' for Active; 'I' for Inactive)
REMARK    1  A    between atoms: C_3  and  C_4 
ROOT
HETATM    1 Br   UNK     0      21.382  35.621   1.968  0.00  0.00    -0.096 Br
HETATM    2  C   UNK     0      20.102  36.817   2.814  0.00  0.00     0.096 C 
ENDROOT
BRANCH   2   3
HETATM    3  C   UNK     0      18.955  36.014   3.373  0.00  0.00     0.096 C 
HETATM    4 Br   UNK     0      17.648  37.216   4.169  0.00  0.00    -0.096 Br
ENDBRANCH   2   3
TORSDOF 1
