REMARK  1 active torsions:
REMARK  status: ('A' for Active; 'I' for Inactive)
REMARK    1  A    between atoms: C_3  and  C_4 
ROOT
HETATM    1 Br   UNK     0      21.040  35.406   1.601  0.00  0.00    -0.096 Br
HETATM    2  C   UNK     0      20.356  36.619   2.961  0.00  0.00     0.096 C 
ENDROOT
BRANCH   2   3
HETATM    3  C   UNK     0      19.110  36.033   3.575  0.00  0.00     0.096 C 
HETATM    4 Br   UNK     0      18.633  37.046   5.167  0.00  0.00    -0.096 Br
ENDBRANCH   2   3
TORSDOF 1
