REMARK  1 active torsions:
REMARK  status: ('A' for Active; 'I' for Inactive)
REMARK    1  A    between atoms: C_3  and  C_4 
ROOT
HETATM    1 Br   UNK     0      21.339  35.618   2.091  0.00  0.00    -0.096 Br
HETATM    2  C   UNK     0      20.111  36.863   2.943  0.00  0.00     0.096 C 
ENDROOT
BRANCH   2   3
HETATM    3  C   UNK     0      18.974  36.097   3.572  0.00  0.00     0.096 C 
HETATM    4 Br   UNK     0      17.922  37.296   4.687  0.00  0.00    -0.096 Br
ENDBRANCH   2   3
TORSDOF 1
