REMARK  1 active torsions:
REMARK  status: ('A' for Active; 'I' for Inactive)
REMARK    1  A    between atoms: C_3  and  C_4 
ROOT
HETATM    1 Br   UNK     0      21.512  35.698   2.282  0.00  0.00    -0.096 Br
HETATM    2  C   UNK     0      20.074  36.843   2.919  0.00  0.00     0.096 C 
ENDROOT
BRANCH   2   3
HETATM    3  C   UNK     0      18.947  35.991   3.445  0.00  0.00     0.096 C 
HETATM    4 Br   UNK     0      17.542  37.136   4.153  0.00  0.00    -0.096 Br
ENDBRANCH   2   3
TORSDOF 1
