MODEL 7
REMARK VINA RESULT:    -1.547      2.148      2.344
REMARK INTER + INTRA:          -1.637
REMARK INTER:                  -1.637
REMARK INTRA:                   0.000
REMARK UNBOUND:                 0.000
REMARK  1 active torsions:
REMARK  status: ('A' for Active; 'I' for Inactive)
REMARK    1  A    between atoms: C_3  and  C_4 
ROOT
HETATM    1 Br   UNK     0      20.571  34.274   2.084  0.00  0.00    -0.096 Br
HETATM    2  C   UNK     0      19.530  35.466   3.216  0.00  0.00     0.096 C 
ENDROOT
BRANCH   2   3
HETATM    3  C   UNK     0      20.036  36.878   3.059  0.00  0.00     0.096 C 
HETATM    4 Br   UNK     0      21.274  36.960   1.561  0.00  0.00    -0.096 Br
ENDBRANCH   2   3
TORSDOF 1
ENDMDL
