MODEL 8
REMARK VINA RESULT:    -1.908      1.806      1.806
REMARK INTER + INTRA:          -2.020
REMARK INTER:                  -2.020
REMARK INTRA:                   0.000
REMARK UNBOUND:                 0.000
REMARK  1 active torsions:
REMARK  status: ('A' for Active; 'I' for Inactive)
REMARK    1  A    between atoms: C_3  and  C_4 
ROOT
HETATM    1 Br   UNK     0      18.888  35.981   4.046  0.00  0.00    -0.096 Br
HETATM    2  C   UNK     0      20.320  37.142   3.424  0.00  0.00     0.096 C 
ENDROOT
BRANCH   2   3
HETATM    3  C   UNK     0      21.278  36.347   2.572  0.00  0.00     0.096 C 
HETATM    4 Br   UNK     0      20.364  34.785   1.856  0.00  0.00    -0.096 Br
ENDBRANCH   2   3
TORSDOF 1
ENDMDL
