MODEL 6
REMARK VINA RESULT:    -1.990      1.469      3.307
REMARK INTER + INTRA:          -2.107
REMARK INTER:                  -2.107
REMARK INTRA:                   0.000
REMARK UNBOUND:                 0.000
REMARK  1 active torsions:
REMARK  status: ('A' for Active; 'I' for Inactive)
REMARK    1  A    between atoms: C_3  and  C_4 
ROOT
HETATM    1 Br   UNK     0      20.021  36.762   4.490  0.00  0.00    -0.096 Br
HETATM    2  C   UNK     0      19.658  36.057   2.713  0.00  0.00     0.096 C 
ENDROOT
BRANCH   2   3
HETATM    3  C   UNK     0      20.504  36.788   1.700  0.00  0.00     0.096 C 
HETATM    4 Br   UNK     0      21.445  35.497   0.590  0.00  0.00    -0.096 Br
ENDBRANCH   2   3
TORSDOF 1
ENDMDL
