MODEL 8
REMARK VINA RESULT:    -1.595      2.194      2.306
REMARK INTER + INTRA:          -1.688
REMARK INTER:                  -1.688
REMARK INTRA:                   0.000
REMARK UNBOUND:                 0.000
REMARK  1 active torsions:
REMARK  status: ('A' for Active; 'I' for Inactive)
REMARK    1  A    between atoms: C_3  and  C_4 
ROOT
HETATM    1 Br   UNK     0      20.686  34.273   2.124  0.00  0.00    -0.096 Br
HETATM    2  C   UNK     0      21.227  35.846   1.113  0.00  0.00     0.096 C 
ENDROOT
BRANCH   2   3
HETATM    3  C   UNK     0      20.846  37.089   1.877  0.00  0.00     0.096 C 
HETATM    4 Br   UNK     0      19.959  36.586   3.534  0.00  0.00    -0.096 Br
ENDBRANCH   2   3
TORSDOF 1
ENDMDL
