MODEL 1
REMARK VINA RESULT:    -3.356      0.000      0.000
REMARK INTER + INTRA:          -3.552
REMARK INTER:                  -3.552
REMARK INTRA:                   0.000
REMARK UNBOUND:                 0.000
REMARK  1 active torsions:
REMARK  status: ('A' for Active; 'I' for Inactive)
REMARK    1  A    between atoms: C_3  and  C_4 
ROOT
HETATM    1 Br   UNK     0      19.612  37.048   5.170  0.00  0.00    -0.096 Br
HETATM    2  C   UNK     0      18.687  36.346   3.609  0.00  0.00     0.096 C 
ENDROOT
BRANCH   2   3
HETATM    3  C   UNK     0      19.621  35.454   2.829  0.00  0.00     0.096 C 
HETATM    4 Br   UNK     0      20.939  36.547   1.904  0.00  0.00    -0.096 Br
ENDBRANCH   2   3
TORSDOF 1
ENDMDL
