MODEL 7
REMARK VINA RESULT:    -1.501      2.372      3.095
REMARK INTER + INTRA:          -1.589
REMARK INTER:                  -1.589
REMARK INTRA:                   0.000
REMARK UNBOUND:                 0.000
REMARK  1 active torsions:
REMARK  status: ('A' for Active; 'I' for Inactive)
REMARK    1  A    between atoms: C_3  and  C_4 
ROOT
HETATM    1 Br   UNK     0      20.741  34.267   2.240  0.00  0.00    -0.096 Br
HETATM    2  C   UNK     0      21.276  35.919   1.362  0.00  0.00     0.096 C 
ENDROOT
BRANCH   2   3
HETATM    3  C   UNK     0      20.389  37.046   1.829  0.00  0.00     0.096 C 
HETATM    4 Br   UNK     0      18.850  36.313   2.769  0.00  0.00    -0.096 Br
ENDBRANCH   2   3
TORSDOF 1
ENDMDL
