MODEL 9
REMARK VINA RESULT:    -1.746      2.133      2.306
REMARK INTER + INTRA:          -1.848
REMARK INTER:                  -1.848
REMARK INTRA:                   0.000
REMARK UNBOUND:                 0.000
REMARK  1 active torsions:
REMARK  status: ('A' for Active; 'I' for Inactive)
REMARK    1  A    between atoms: C_3  and  C_4 
ROOT
HETATM    1 Br   UNK     0      21.290  35.309   0.798  0.00  0.00    -0.096 Br
HETATM    2  C   UNK     0      21.358  36.927   1.877  0.00  0.00     0.096 C 
ENDROOT
BRANCH   2   3
HETATM    3  C   UNK     0      20.661  36.683   3.192  0.00  0.00     0.096 C 
HETATM    4 Br   UNK     0      18.806  36.196   2.863  0.00  0.00    -0.096 Br
ENDBRANCH   2   3
TORSDOF 1
ENDMDL
