MODEL 7
REMARK VINA RESULT:    -1.468      2.164      2.416
REMARK INTER + INTRA:          -1.553
REMARK INTER:                  -1.553
REMARK INTRA:                   0.000
REMARK UNBOUND:                 0.000
REMARK  1 active torsions:
REMARK  status: ('A' for Active; 'I' for Inactive)
REMARK    1  A    between atoms: C_3  and  C_4 
ROOT
HETATM    1 Br   UNK     0      20.793  34.328   1.942  0.00  0.00    -0.096 Br
HETATM    2  C   UNK     0      19.616  35.403   3.059  0.00  0.00     0.096 C 
ENDROOT
BRANCH   2   3
HETATM    3  C   UNK     0      19.863  36.866   2.787  0.00  0.00     0.096 C 
HETATM    4 Br   UNK     0      21.241  37.049   1.426  0.00  0.00    -0.096 Br
ENDBRANCH   2   3
TORSDOF 1
ENDMDL
