REMARK  1 active torsions:
REMARK  status: ('A' for Active; 'I' for Inactive)
REMARK    1  A    between atoms: C_3  and  C_4 
ROOT
HETATM    1 Br   UNK     0      22.222  35.771   2.485  0.00  0.00    -0.096 Br
HETATM    2  C   UNK     0      20.405  36.467   2.457  0.00  0.00     0.096 C 
ENDROOT
BRANCH   2   3
HETATM    3  C   UNK     0      19.427  35.319   2.457  0.00  0.00     0.096 C 
HETATM    4 Br   UNK     0      17.610  36.015   2.485  0.00  0.00    -0.096 Br
ENDBRANCH   2   3
TORSDOF 1
