REMARK  1 active torsions:
REMARK  status: ('A' for Active; 'I' for Inactive)
REMARK    1  A    between atoms: C_3  and  C_4 
ROOT
HETATM    1 Br   UNK     0      26.239  33.205  -3.664  0.00  0.00    -0.096 Br
HETATM    2  C   UNK     0      24.509  33.099  -4.548  0.00  0.00     0.096 C 
ENDROOT
BRANCH   2   3
HETATM    3  C   UNK     0      24.326  31.721  -5.132  0.00  0.00     0.096 C 
HETATM    4 Br   UNK     0      22.895  30.801  -4.188  0.00  0.00    -0.096 Br
ENDBRANCH   2   3
TORSDOF 1
