REMARK  1 active torsions:
REMARK  status: ('A' for Active; 'I' for Inactive)
REMARK    1  A    between atoms: C_3  and  C_4 
ROOT
HETATM    1 Br   UNK     0      21.586  35.784   2.310  0.00  0.00    -0.096 Br
HETATM    2  C   UNK     0      19.969  36.856   2.469  0.00  0.00     0.096 C 
ENDROOT
BRANCH   2   3
HETATM    3  C   UNK     0      18.777  35.948   2.633  0.00  0.00     0.096 C 
HETATM    4 Br   UNK     0      17.163  37.020   2.808  0.00  0.00    -0.096 Br
ENDBRANCH   2   3
TORSDOF 1
