REMARK  1 active torsions:
REMARK  status: ('A' for Active; 'I' for Inactive)
REMARK    1  A    between atoms: C_3  and  C_4 
ROOT
HETATM    1 Br   UNK     0      26.342  32.778  -2.571  0.00  0.00    -0.096 Br
HETATM    2  C   UNK     0      24.564  32.688  -3.354  0.00  0.00     0.096 C 
ENDROOT
BRANCH   2   3
HETATM    3  C   UNK     0      24.485  31.507  -4.290  0.00  0.00     0.096 C 
HETATM    4 Br   UNK     0      22.863  31.632  -5.358  0.00  0.00    -0.096 Br
ENDBRANCH   2   3
TORSDOF 1
