MODEL 1
REMARK VINA RESULT:    -1.833      0.000      0.000
REMARK INTER + INTRA:          -1.940
REMARK INTER:                  -1.940
REMARK INTRA:                   0.000
REMARK UNBOUND:                 0.000
REMARK  1 active torsions:
REMARK  status: ('A' for Active; 'I' for Inactive)
REMARK    1  A    between atoms: C_3  and  C_4 
ROOT
HETATM    1 Br   UNK     0      28.255  34.174  -4.209  0.00  0.00    -0.096 Br
HETATM    2  C   UNK     0      26.751  33.836  -3.021  0.00  0.00     0.096 C 
ENDROOT
BRANCH   2   3
HETATM    3  C   UNK     0      25.794  32.876  -3.682  0.00  0.00     0.096 C 
HETATM    4 Br   UNK     0      24.130  32.824  -2.675  0.00  0.00    -0.096 Br
ENDBRANCH   2   3
TORSDOF 1
ENDMDL
