MODEL 1
REMARK VINA RESULT:    -2.409      0.000      0.000
REMARK INTER + INTRA:          -2.550
REMARK INTER:                  -2.550
REMARK INTRA:                   0.000
REMARK UNBOUND:                 0.000
REMARK  1 active torsions:
REMARK  status: ('A' for Active; 'I' for Inactive)
REMARK    1  A    between atoms: C_3  and  C_4 
ROOT
HETATM    1 Br   UNK     0      17.763  36.767   2.309  0.00  0.00    -0.096 Br
HETATM    2  C   UNK     0      18.938  36.365   3.807  0.00  0.00     0.096 C 
ENDROOT
BRANCH   2   3
HETATM    3  C   UNK     0      20.375  36.485   3.366  0.00  0.00     0.096 C 
HETATM    4 Br   UNK     0      20.721  35.216   1.931  0.00  0.00    -0.096 Br
ENDBRANCH   2   3
TORSDOF 1
ENDMDL
