MODEL 1
REMARK VINA RESULT:    -2.863      0.000      0.000
REMARK INTER + INTRA:          -3.031
REMARK INTER:                  -3.031
REMARK INTRA:                   0.000
REMARK UNBOUND:                 0.000
REMARK  1 active torsions:
REMARK  status: ('A' for Active; 'I' for Inactive)
REMARK    1  A    between atoms: C_3  and  C_4 
ROOT
HETATM    1 Br   UNK     0      21.068  36.449   1.861  0.00  0.00    -0.096 Br
HETATM    2  C   UNK     0      19.572  35.670   2.832  0.00  0.00     0.096 C 
ENDROOT
BRANCH   2   3
HETATM    3  C   UNK     0      19.261  36.517   4.040  0.00  0.00     0.096 C 
HETATM    4 Br   UNK     0      17.392  37.055   3.992  0.00  0.00    -0.096 Br
ENDBRANCH   2   3
TORSDOF 1
ENDMDL
