MODEL 1
REMARK VINA RESULT:    -2.395      0.000      0.000
REMARK INTER + INTRA:          -2.535
REMARK INTER:                  -2.535
REMARK INTRA:                   0.000
REMARK UNBOUND:                 0.000
REMARK  1 active torsions:
REMARK  status: ('A' for Active; 'I' for Inactive)
REMARK    1  A    between atoms: C_3  and  C_4 
ROOT
HETATM    1 Br   UNK     0      17.814  37.004   2.531  0.00  0.00    -0.096 Br
HETATM    2  C   UNK     0      19.273  36.157   3.500  0.00  0.00     0.096 C 
ENDROOT
BRANCH   2   3
HETATM    3  C   UNK     0      20.112  35.351   2.540  0.00  0.00     0.096 C 
HETATM    4 Br   UNK     0      21.194  36.553   1.458  0.00  0.00    -0.096 Br
ENDBRANCH   2   3
TORSDOF 1
ENDMDL
