MODEL 1
REMARK VINA RESULT:    -2.741      0.000      0.000
REMARK INTER + INTRA:          -2.901
REMARK INTER:                  -2.901
REMARK INTRA:                   0.000
REMARK UNBOUND:                 0.000
REMARK  1 active torsions:
REMARK  status: ('A' for Active; 'I' for Inactive)
REMARK    1  A    between atoms: C_3  and  C_4 
ROOT
HETATM    1 Br   UNK     0      17.551  36.917   2.360  0.00  0.00    -0.096 Br
HETATM    2  C   UNK     0      18.222  36.551   4.149  0.00  0.00     0.096 C 
ENDROOT
BRANCH   2   3
HETATM    3  C   UNK     0      19.722  36.709   4.165  0.00  0.00     0.096 C 
HETATM    4 Br   UNK     0      20.448  36.179   2.439  0.00  0.00    -0.096 Br
ENDBRANCH   2   3
TORSDOF 1
ENDMDL
