MODEL 1
REMARK VINA RESULT:    -2.855      0.000      0.000
REMARK INTER + INTRA:          -3.022
REMARK INTER:                  -3.022
REMARK INTRA:                   0.000
REMARK UNBOUND:                 0.000
REMARK  1 active torsions:
REMARK  status: ('A' for Active; 'I' for Inactive)
REMARK    1  A    between atoms: C_3  and  C_4 
ROOT
HETATM    1 Br   UNK     0      17.336  36.990   3.750  0.00  0.00    -0.096 Br
HETATM    2  C   UNK     0      19.194  36.450   3.963  0.00  0.00     0.096 C 
ENDROOT
BRANCH   2   3
HETATM    3  C   UNK     0      19.613  35.611   2.782  0.00  0.00     0.096 C 
HETATM    4 Br   UNK     0      21.098  36.474   1.867  0.00  0.00    -0.096 Br
ENDBRANCH   2   3
TORSDOF 1
ENDMDL
