MODEL 1
REMARK VINA RESULT:    -2.577      0.000      0.000
REMARK INTER + INTRA:          -2.727
REMARK INTER:                  -2.727
REMARK INTRA:                   0.000
REMARK UNBOUND:                 0.000
REMARK  1 active torsions:
REMARK  status: ('A' for Active; 'I' for Inactive)
REMARK    1  A    between atoms: C_3  and  C_4 
ROOT
HETATM    1 Br   UNK     0      17.695  36.928   2.150  0.00  0.00    -0.096 Br
HETATM    2  C   UNK     0      18.380  36.544   3.930  0.00  0.00     0.096 C 
ENDROOT
BRANCH   2   3
HETATM    3  C   UNK     0      19.888  36.569   3.905  0.00  0.00     0.096 C 
HETATM    4 Br   UNK     0      20.517  35.993   2.156  0.00  0.00    -0.096 Br
ENDBRANCH   2   3
TORSDOF 1
ENDMDL
