MODEL 1
REMARK VINA RESULT:    -2.799      0.000      0.000
REMARK INTER + INTRA:          -2.963
REMARK INTER:                  -2.963
REMARK INTRA:                   0.000
REMARK UNBOUND:                 0.000
REMARK  1 active torsions:
REMARK  status: ('A' for Active; 'I' for Inactive)
REMARK    1  A    between atoms: C_3  and  C_4 
ROOT
HETATM    1 Br   UNK     0      19.725  37.149   5.174  0.00  0.00    -0.096 Br
HETATM    2  C   UNK     0      18.230  36.499   4.112  0.00  0.00     0.096 C 
ENDROOT
BRANCH   2   3
HETATM    3  C   UNK     0      18.618  36.486   2.654  0.00  0.00     0.096 C 
HETATM    4 Br   UNK     0      20.535  36.194   2.495  0.00  0.00    -0.096 Br
ENDBRANCH   2   3
TORSDOF 1
ENDMDL
