MODEL 1
REMARK VINA RESULT:    -2.262      0.000      0.000
REMARK INTER + INTRA:          -2.394
REMARK INTER:                  -2.394
REMARK INTRA:                   0.000
REMARK UNBOUND:                 0.000
REMARK  1 active torsions:
REMARK  status: ('A' for Active; 'I' for Inactive)
REMARK    1  A    between atoms: C_3  and  C_4 
ROOT
HETATM    1 Br   UNK     0      17.953  36.931   2.501  0.00  0.00    -0.096 Br
HETATM    2  C   UNK     0      19.372  35.887   3.328  0.00  0.00     0.096 C 
ENDROOT
BRANCH   2   3
HETATM    3  C   UNK     0      20.198  35.223   2.255  0.00  0.00     0.096 C 
HETATM    4 Br   UNK     0      21.375  36.538   1.435  0.00  0.00    -0.096 Br
ENDBRANCH   2   3
TORSDOF 1
ENDMDL
