MODEL 7
REMARK VINA RESULT:    -1.861      1.819      3.029
REMARK INTER + INTRA:          -1.970
REMARK INTER:                  -1.970
REMARK INTRA:                   0.000
REMARK UNBOUND:                 0.000
REMARK  1 active torsions:
REMARK  status: ('A' for Active; 'I' for Inactive)
REMARK    1  A    between atoms: C_3  and  C_4 
ROOT
HETATM    1 Br   UNK     0      19.397  36.136   3.458  0.00  0.00    -0.096 Br
HETATM    2  C   UNK     0      20.148  34.619   2.498  0.00  0.00     0.096 C 
ENDROOT
BRANCH   2   3
HETATM    3  C   UNK     0      20.814  35.103   1.235  0.00  0.00     0.096 C 
HETATM    4 Br   UNK     0      21.342  36.963   1.451  0.00  0.00    -0.096 Br
ENDBRANCH   2   3
TORSDOF 1
ENDMDL
