MODEL 8
REMARK VINA RESULT:    -1.521      2.239      2.487
REMARK INTER + INTRA:          -1.610
REMARK INTER:                  -1.610
REMARK INTRA:                   0.000
REMARK UNBOUND:                 0.000
REMARK  1 active torsions:
REMARK  status: ('A' for Active; 'I' for Inactive)
REMARK    1  A    between atoms: C_3  and  C_4 
ROOT
HETATM    1 Br   UNK     0      20.658  34.264   2.028  0.00  0.00    -0.096 Br
HETATM    2  C   UNK     0      19.544  35.433   3.114  0.00  0.00     0.096 C 
ENDROOT
BRANCH   2   3
HETATM    3  C   UNK     0      19.900  36.871   2.832  0.00  0.00     0.096 C 
HETATM    4 Br   UNK     0      21.281  36.940   1.462  0.00  0.00    -0.096 Br
ENDBRANCH   2   3
TORSDOF 1
ENDMDL
