MODEL 5
REMARK VINA RESULT:    -3.220      1.712      2.841
REMARK INTER + INTRA:          -3.409
REMARK INTER:                  -3.409
REMARK INTRA:                   0.000
REMARK UNBOUND:                 0.000
REMARK  1 active torsions:
REMARK  status: ('A' for Active; 'I' for Inactive)
REMARK    1  A    between atoms: C_3  and  C_4 
ROOT
HETATM    1 Br   UNK     0      20.900  36.582   1.636  0.00  0.00    -0.096 Br
HETATM    2  C   UNK     0      19.872  35.341   2.727  0.00  0.00     0.096 C 
ENDROOT
BRANCH   2   3
HETATM    3  C   UNK     0      18.912  36.113   3.597  0.00  0.00     0.096 C 
HETATM    4 Br   UNK     0      17.552  36.946   2.481  0.00  0.00    -0.096 Br
ENDBRANCH   2   3
TORSDOF 1
ENDMDL
