MODEL 7
REMARK VINA RESULT:    -2.032      1.113      2.802
REMARK INTER + INTRA:          -2.151
REMARK INTER:                  -2.151
REMARK INTRA:                   0.000
REMARK UNBOUND:                 0.000
REMARK  1 active torsions:
REMARK  status: ('A' for Active; 'I' for Inactive)
REMARK    1  A    between atoms: C_3  and  C_4 
ROOT
HETATM    1 Br   UNK     0      21.199  36.311   1.208  0.00  0.00    -0.096 Br
HETATM    2  C   UNK     0      20.412  34.803   2.153  0.00  0.00     0.096 C 
ENDROOT
BRANCH   2   3
HETATM    3  C   UNK     0      19.546  35.312   3.278  0.00  0.00     0.096 C 
HETATM    4 Br   UNK     0      20.097  37.116   3.756  0.00  0.00    -0.096 Br
ENDBRANCH   2   3
TORSDOF 1
ENDMDL
