MODEL 7
REMARK VINA RESULT:    -1.442      2.162      2.479
REMARK INTER + INTRA:          -1.526
REMARK INTER:                  -1.526
REMARK INTRA:                   0.000
REMARK UNBOUND:                 0.000
REMARK  1 active torsions:
REMARK  status: ('A' for Active; 'I' for Inactive)
REMARK    1  A    between atoms: C_3  and  C_4 
ROOT
HETATM    1 Br   UNK     0      20.695  34.298   2.057  0.00  0.00    -0.096 Br
HETATM    2  C   UNK     0      19.518  35.493   3.045  0.00  0.00     0.096 C 
ENDROOT
BRANCH   2   3
HETATM    3  C   UNK     0      19.759  36.914   2.603  0.00  0.00     0.096 C 
HETATM    4 Br   UNK     0      21.311  36.975   1.431  0.00  0.00    -0.096 Br
ENDBRANCH   2   3
TORSDOF 1
ENDMDL
