REMARK  1 active torsions:
REMARK  status: ('A' for Active; 'I' for Inactive)
REMARK    1  A    between atoms: C_3  and  C_4 
ROOT
HETATM    1 Br   UNK     0      23.946  35.243  -0.036  0.00  0.00    -0.096 Br
HETATM    2  C   UNK     0      22.129  35.939  -0.064  0.00  0.00     0.096 C 
ENDROOT
BRANCH   2   3
HETATM    3  C   UNK     0      21.151  34.791  -0.064  0.00  0.00     0.096 C 
HETATM    4 Br   UNK     0      19.334  35.487  -0.036  0.00  0.00    -0.096 Br
ENDBRANCH   2   3
TORSDOF 1
