REMARK  1 active torsions:
REMARK  status: ('A' for Active; 'I' for Inactive)
REMARK    1  A    between atoms: C_3  and  C_4 
ROOT
HETATM    1 Br   UNK     0      21.428  35.732   1.902  0.00  0.00    -0.096 Br
HETATM    2  C   UNK     0      19.982  36.832   2.598  0.00  0.00     0.096 C 
ENDROOT
BRANCH   2   3
HETATM    3  C   UNK     0      18.991  35.958   3.322  0.00  0.00     0.096 C 
HETATM    4 Br   UNK     0      17.323  36.932   3.565  0.00  0.00    -0.096 Br
ENDBRANCH   2   3
TORSDOF 1
