REMARK  1 active torsions:
REMARK  status: ('A' for Active; 'I' for Inactive)
REMARK    1  A    between atoms: C_3  and  C_4 
ROOT
HETATM    1 Br   UNK     0      25.241  33.839  -1.540  0.00  0.00    -0.096 Br
HETATM    2  C   UNK     0      23.424  34.535  -1.568  0.00  0.00     0.096 C 
ENDROOT
BRANCH   2   3
HETATM    3  C   UNK     0      22.446  33.387  -1.568  0.00  0.00     0.096 C 
HETATM    4 Br   UNK     0      20.629  34.083  -1.540  0.00  0.00    -0.096 Br
ENDBRANCH   2   3
TORSDOF 1
