MODEL 7
REMARK VINA RESULT:    -1.484      2.345      2.493
REMARK INTER + INTRA:          -1.571
REMARK INTER:                  -1.571
REMARK INTRA:                   0.000
REMARK UNBOUND:                 0.000
REMARK  1 active torsions:
REMARK  status: ('A' for Active; 'I' for Inactive)
REMARK    1  A    between atoms: C_3  and  C_4 
ROOT
HETATM    1 Br   UNK     0      19.783  36.631   3.254  0.00  0.00    -0.096 Br
HETATM    2  C   UNK     0      21.097  37.029   1.874  0.00  0.00     0.096 C 
ENDROOT
BRANCH   2   3
HETATM    3  C   UNK     0      21.297  35.812   1.005  0.00  0.00     0.096 C 
HETATM    4 Br   UNK     0      20.756  34.220   1.984  0.00  0.00    -0.096 Br
ENDBRANCH   2   3
TORSDOF 1
ENDMDL
