MODEL 3
REMARK VINA RESULT:    -3.298      1.755      2.765
REMARK INTER + INTRA:          -3.491
REMARK INTER:                  -3.491
REMARK INTRA:                   0.000
REMARK UNBOUND:                 0.000
REMARK  1 active torsions:
REMARK  status: ('A' for Active; 'I' for Inactive)
REMARK    1  A    between atoms: C_3  and  C_4 
ROOT
HETATM    1 Br   UNK     0      17.372  36.903   2.412  0.00  0.00    -0.096 Br
HETATM    2  C   UNK     0      18.829  36.229   3.511  0.00  0.00     0.096 C 
ENDROOT
BRANCH   2   3
HETATM    3  C   UNK     0      19.748  35.385   2.665  0.00  0.00     0.096 C 
HETATM    4 Br   UNK     0      21.069  36.526   1.805  0.00  0.00    -0.096 Br
ENDBRANCH   2   3
TORSDOF 1
ENDMDL
