MODEL 1
REMARK VINA RESULT:    -3.361      0.000      0.000
REMARK INTER + INTRA:          -3.557
REMARK INTER:                  -3.557
REMARK INTRA:                   0.000
REMARK UNBOUND:                 0.000
REMARK  1 active torsions:
REMARK  status: ('A' for Active; 'I' for Inactive)
REMARK    1  A    between atoms: C_3  and  C_4 
ROOT
HETATM    1 Br   UNK     0      20.898  36.548   1.893  0.00  0.00    -0.096 Br
HETATM    2  C   UNK     0      19.604  35.461   2.858  0.00  0.00     0.096 C 
ENDROOT
BRANCH   2   3
HETATM    3  C   UNK     0      18.661  36.359   3.618  0.00  0.00     0.096 C 
HETATM    4 Br   UNK     0      19.574  37.092   5.173  0.00  0.00    -0.096 Br
ENDBRANCH   2   3
TORSDOF 1
ENDMDL
