REMARK  1 active torsions:
REMARK  status: ('A' for Active; 'I' for Inactive)
REMARK    1  A    between atoms: C_3  and  C_4 
ROOT
HETATM    1 Br   UNK     0      23.108  35.357   1.934  0.00  0.00    -0.096 Br
HETATM    2  C   UNK     0      21.291  36.053   1.906  0.00  0.00     0.096 C 
ENDROOT
BRANCH   2   3
HETATM    3  C   UNK     0      20.313  34.905   1.906  0.00  0.00     0.096 C 
HETATM    4 Br   UNK     0      18.496  35.601   1.934  0.00  0.00    -0.096 Br
ENDBRANCH   2   3
TORSDOF 1
