MODEL 1
REMARK VINA RESULT:    -0.321      0.000      0.000
REMARK INTER + INTRA:          -0.339
REMARK INTER:                  -0.339
REMARK INTRA:                   0.000
REMARK UNBOUND:                 0.000
REMARK  1 active torsions:
REMARK  status: ('A' for Active; 'I' for Inactive)
REMARK    1  A    between atoms: C_3  and  C_4 
ROOT
HETATM    1 Br   UNK     0      22.766  32.259  -3.396  0.00  0.00    -0.096 Br
HETATM    2  C   UNK     0      24.681  32.607  -3.419  0.00  0.00     0.096 C 
ENDROOT
BRANCH   2   3
HETATM    3  C   UNK     0      24.988  33.783  -2.525  0.00  0.00     0.096 C 
HETATM    4 Br   UNK     0      23.335  34.467  -1.762  0.00  0.00    -0.096 Br
ENDBRANCH   2   3
TORSDOF 1
ENDMDL
