MODEL 1
REMARK VINA RESULT:    -1.873      0.000      0.000
REMARK INTER + INTRA:          -1.983
REMARK INTER:                  -1.983
REMARK INTRA:                   0.000
REMARK UNBOUND:                 0.000
REMARK  1 active torsions:
REMARK  status: ('A' for Active; 'I' for Inactive)
REMARK    1  A    between atoms: C_3  and  C_4 
ROOT
HETATM    1 Br   UNK     0      23.157  31.747  -4.230  0.00  0.00    -0.096 Br
HETATM    2  C   UNK     0      23.763  32.848  -2.744  0.00  0.00     0.096 C 
ENDROOT
BRANCH   2   3
HETATM    3  C   UNK     0      25.269  32.816  -2.676  0.00  0.00     0.096 C 
HETATM    4 Br   UNK     0      25.828  31.655  -1.218  0.00  0.00    -0.096 Br
ENDBRANCH   2   3
TORSDOF 1
ENDMDL
