MODEL 1
REMARK VINA RESULT:    -1.905      0.000      0.000
REMARK INTER + INTRA:          -2.017
REMARK INTER:                  -2.017
REMARK INTRA:                   0.000
REMARK UNBOUND:                 0.000
REMARK  1 active torsions:
REMARK  status: ('A' for Active; 'I' for Inactive)
REMARK    1  A    between atoms: C_3  and  C_4 
ROOT
HETATM    1 Br   UNK     0      23.122  32.003  -4.168  0.00  0.00    -0.096 Br
HETATM    2  C   UNK     0      23.879  32.828  -2.577  0.00  0.00     0.096 C 
ENDROOT
BRANCH   2   3
HETATM    3  C   UNK     0      25.383  32.733  -2.629  0.00  0.00     0.096 C 
HETATM    4 Br   UNK     0      26.019  31.678  -1.122  0.00  0.00    -0.096 Br
ENDBRANCH   2   3
TORSDOF 1
ENDMDL
