MODEL 1
REMARK VINA RESULT:    -0.705      0.000      0.000
REMARK INTER + INTRA:          -0.746
REMARK INTER:                  -0.746
REMARK INTRA:                   0.000
REMARK UNBOUND:                 0.000
REMARK  1 active torsions:
REMARK  status: ('A' for Active; 'I' for Inactive)
REMARK    1  A    between atoms: C_3  and  C_4 
ROOT
HETATM    1 Br   UNK     0      22.577  32.065  -3.560  0.00  0.00    -0.096 Br
HETATM    2  C   UNK     0      24.523  32.055  -3.569  0.00  0.00     0.096 C 
ENDROOT
BRANCH   2   3
HETATM    3  C   UNK     0      25.035  33.114  -2.625  0.00  0.00     0.096 C 
HETATM    4 Br   UNK     0      23.530  34.059  -1.832  0.00  0.00    -0.096 Br
ENDBRANCH   2   3
TORSDOF 1
ENDMDL
