MODEL 1
REMARK VINA RESULT:    -1.515      0.000      0.000
REMARK INTER + INTRA:          -1.604
REMARK INTER:                  -1.604
REMARK INTRA:                   0.000
REMARK UNBOUND:                 0.000
REMARK  1 active torsions:
REMARK  status: ('A' for Active; 'I' for Inactive)
REMARK    1  A    between atoms: C_3  and  C_4 
ROOT
HETATM    1 Br   UNK     0      25.407  31.505  -4.031  0.00  0.00    -0.096 Br
HETATM    2  C   UNK     0      25.167  32.633  -2.464  0.00  0.00     0.096 C 
ENDROOT
BRANCH   2   3
HETATM    3  C   UNK     0      23.776  33.216  -2.473  0.00  0.00     0.096 C 
HETATM    4 Br   UNK     0      22.675  32.249  -3.753  0.00  0.00    -0.096 Br
ENDBRANCH   2   3
TORSDOF 1
ENDMDL
