MODEL 1
REMARK VINA RESULT:    -1.671      0.000      0.000
REMARK INTER + INTRA:          -1.769
REMARK INTER:                  -1.769
REMARK INTRA:                   0.000
REMARK UNBOUND:                 0.000
REMARK  1 active torsions:
REMARK  status: ('A' for Active; 'I' for Inactive)
REMARK    1  A    between atoms: C_3  and  C_4 
ROOT
HETATM    1 Br   UNK     0      25.538  31.433  -4.147  0.00  0.00    -0.096 Br
HETATM    2  C   UNK     0      25.217  32.753  -2.754  0.00  0.00     0.096 C 
ENDROOT
BRANCH   2   3
HETATM    3  C   UNK     0      23.731  32.916  -2.550  0.00  0.00     0.096 C 
HETATM    4 Br   UNK     0      22.776  32.021  -3.990  0.00  0.00    -0.096 Br
ENDBRANCH   2   3
TORSDOF 1
ENDMDL
