MODEL 1
REMARK VINA RESULT:    -1.939      0.000      0.000
REMARK INTER + INTRA:          -2.052
REMARK INTER:                  -2.052
REMARK INTRA:                   0.000
REMARK UNBOUND:                 0.000
REMARK  1 active torsions:
REMARK  status: ('A' for Active; 'I' for Inactive)
REMARK    1  A    between atoms: C_3  and  C_4 
ROOT
HETATM    1 Br   UNK     0      23.146  31.896  -4.204  0.00  0.00    -0.096 Br
HETATM    2  C   UNK     0      23.897  32.836  -2.675  0.00  0.00     0.096 C 
ENDROOT
BRANCH   2   3
HETATM    3  C   UNK     0      25.401  32.723  -2.704  0.00  0.00     0.096 C 
HETATM    4 Br   UNK     0      25.992  31.567  -1.255  0.00  0.00    -0.096 Br
ENDBRANCH   2   3
TORSDOF 1
ENDMDL
