MODEL 8
REMARK VINA RESULT:    -1.609      2.025      2.202
REMARK INTER + INTRA:          -1.703
REMARK INTER:                  -1.703
REMARK INTRA:                   0.000
REMARK UNBOUND:                 0.000
REMARK  1 active torsions:
REMARK  status: ('A' for Active; 'I' for Inactive)
REMARK    1  A    between atoms: C_3  and  C_4 
ROOT
HETATM    1 Br   UNK     0      19.359  35.712   3.331  0.00  0.00    -0.096 Br
HETATM    2  C   UNK     0      20.631  34.559   2.413  0.00  0.00     0.096 C 
ENDROOT
BRANCH   2   3
HETATM    3  C   UNK     0      20.991  35.169   1.081  0.00  0.00     0.096 C 
HETATM    4 Br   UNK     0      21.279  37.081   1.300  0.00  0.00    -0.096 Br
ENDBRANCH   2   3
TORSDOF 1
ENDMDL
