MODEL 6
REMARK VINA RESULT:    -1.691      1.396      1.396
REMARK INTER + INTRA:          -1.790
REMARK INTER:                  -1.790
REMARK INTRA:                   0.000
REMARK UNBOUND:                 0.000
REMARK  1 active torsions:
REMARK  status: ('A' for Active; 'I' for Inactive)
REMARK    1  A    between atoms: C_3  and  C_4 
ROOT
HETATM    1 Br   UNK     0      18.145  36.481   4.613  0.00  0.00    -0.096 Br
HETATM    2  C   UNK     0      19.323  37.102   3.195  0.00  0.00     0.096 C 
ENDROOT
BRANCH   2   3
HETATM    3  C   UNK     0      19.164  36.215   1.985  0.00  0.00     0.096 C 
HETATM    4 Br   UNK     0      20.562  34.862   1.985  0.00  0.00    -0.096 Br
ENDBRANCH   2   3
TORSDOF 1
ENDMDL
