MODEL 1
REMARK VINA RESULT:    -3.371      0.000      0.000
REMARK INTER + INTRA:          -3.568
REMARK INTER:                  -3.568
REMARK INTRA:                   0.000
REMARK UNBOUND:                 0.000
REMARK  1 active torsions:
REMARK  status: ('A' for Active; 'I' for Inactive)
REMARK    1  A    between atoms: C_3  and  C_4 
ROOT
HETATM    1 Br   UNK     0      19.672  37.080   5.061  0.00  0.00    -0.096 Br
HETATM    2  C   UNK     0      18.724  36.304   3.548  0.00  0.00     0.096 C 
ENDROOT
BRANCH   2   3
HETATM    3  C   UNK     0      19.665  35.426   2.762  0.00  0.00     0.096 C 
HETATM    4 Br   UNK     0      20.980  36.535   1.854  0.00  0.00    -0.096 Br
ENDBRANCH   2   3
TORSDOF 1
ENDMDL
