MODEL 3
REMARK VINA RESULT:    -3.294      1.842      2.737
REMARK INTER + INTRA:          -3.487
REMARK INTER:                  -3.487
REMARK INTRA:                   0.000
REMARK UNBOUND:                 0.000
REMARK  1 active torsions:
REMARK  status: ('A' for Active; 'I' for Inactive)
REMARK    1  A    between atoms: C_3  and  C_4 
ROOT
HETATM    1 Br   UNK     0      17.406  36.910   2.761  0.00  0.00    -0.096 Br
HETATM    2  C   UNK     0      18.929  36.118   3.677  0.00  0.00     0.096 C 
ENDROOT
BRANCH   2   3
HETATM    3  C   UNK     0      19.761  35.340   2.688  0.00  0.00     0.096 C 
HETATM    4 Br   UNK     0      21.023  36.539   1.817  0.00  0.00    -0.096 Br
ENDBRANCH   2   3
TORSDOF 1
ENDMDL
