REMARK  1 active torsions:
REMARK  status: ('A' for Active; 'I' for Inactive)
REMARK    1  A    between atoms: C_3  and  C_4 
ROOT
HETATM    1 Br   UNK     0      21.044  35.466   1.875  0.00  0.00    -0.096 Br
HETATM    2  C   UNK     0      19.526  36.586   2.349  0.00  0.00     0.096 C 
ENDROOT
BRANCH   2   3
HETATM    3  C   UNK     0      18.873  36.046   3.598  0.00  0.00     0.096 C 
HETATM    4 Br   UNK     0      17.564  37.330   4.252  0.00  0.00    -0.096 Br
ENDBRANCH   2   3
TORSDOF 1
