REMARK  1 active torsions:
REMARK  status: ('A' for Active; 'I' for Inactive)
REMARK    1  A    between atoms: C_3  and  C_4 
ROOT
HETATM    1 Br   UNK     0      26.238  32.439  -2.406  0.00  0.00    -0.096 Br
HETATM    2  C   UNK     0      26.449  30.580  -1.876  0.00  0.00     0.096 C 
ENDROOT
BRANCH   2   3
HETATM    3  C   UNK     0      27.889  30.167  -2.054  0.00  0.00     0.096 C 
HETATM    4 Br   UNK     0      28.280  28.659  -0.887  0.00  0.00    -0.096 Br
ENDBRANCH   2   3
TORSDOF 1
