REMARK  1 active torsions:
REMARK  status: ('A' for Active; 'I' for Inactive)
REMARK    1  A    between atoms: C_3  and  C_4 
ROOT
HETATM    1 Br   UNK     0      21.203  35.389   1.863  0.00  0.00    -0.096 Br
HETATM    2  C   UNK     0      19.898  36.661   2.545  0.00  0.00     0.096 C 
ENDROOT
BRANCH   2   3
HETATM    3  C   UNK     0      18.932  35.950   3.461  0.00  0.00     0.096 C 
HETATM    4 Br   UNK     0      17.965  37.260   4.526  0.00  0.00    -0.096 Br
ENDBRANCH   2   3
TORSDOF 1
