REMARK  1 active torsions:
REMARK  status: ('A' for Active; 'I' for Inactive)
REMARK    1  A    between atoms: C_3  and  C_4 
ROOT
HETATM    1 Br   UNK     0      21.436  35.470   1.902  0.00  0.00    -0.096 Br
HETATM    2  C   UNK     0      20.144  36.673   2.720  0.00  0.00     0.096 C 
ENDROOT
BRANCH   2   3
HETATM    3  C   UNK     0      19.113  35.869   3.471  0.00  0.00     0.096 C 
HETATM    4 Br   UNK     0      17.850  37.074   4.331  0.00  0.00    -0.096 Br
ENDBRANCH   2   3
TORSDOF 1
