REMARK  1 active torsions:
REMARK  status: ('A' for Active; 'I' for Inactive)
REMARK    1  A    between atoms: C_3  and  C_4 
ROOT
HETATM    1 Br   UNK     0      26.298  32.728  -2.487  0.00  0.00    -0.096 Br
HETATM    2  C   UNK     0      24.545  32.840  -3.324  0.00  0.00     0.096 C 
ENDROOT
BRANCH   2   3
HETATM    3  C   UNK     0      24.307  31.607  -4.158  0.00  0.00     0.096 C 
HETATM    4 Br   UNK     0      22.705  31.852  -5.237  0.00  0.00    -0.096 Br
ENDBRANCH   2   3
TORSDOF 1
