REMARK  1 active torsions:
REMARK  status: ('A' for Active; 'I' for Inactive)
REMARK    1  A    between atoms: C_3  and  C_4 
ROOT
HETATM    1 Br   UNK     0      21.368  35.817   2.455  0.00  0.00    -0.096 Br
HETATM    2  C   UNK     0      19.744  36.880   2.592  0.00  0.00     0.096 C 
ENDROOT
BRANCH   2   3
HETATM    3  C   UNK     0      18.556  35.966   2.752  0.00  0.00     0.096 C 
HETATM    4 Br   UNK     0      16.931  37.029   2.880  0.00  0.00    -0.096 Br
ENDBRANCH   2   3
TORSDOF 1
