REMARK  1 active torsions:
REMARK  status: ('A' for Active; 'I' for Inactive)
REMARK    1  A    between atoms: C_3  and  C_4 
ROOT
HETATM    1 Br   UNK     0      26.407  32.812  -2.477  0.00  0.00    -0.096 Br
HETATM    2  C   UNK     0      24.708  32.757  -3.424  0.00  0.00     0.096 C 
ENDROOT
BRANCH   2   3
HETATM    3  C   UNK     0      24.586  31.447  -4.162  0.00  0.00     0.096 C 
HETATM    4 Br   UNK     0      23.073  31.529  -5.382  0.00  0.00    -0.096 Br
ENDBRANCH   2   3
TORSDOF 1
