MODEL 7
REMARK VINA RESULT:    -2.627      1.620      3.172
REMARK INTER + INTRA:          -2.781
REMARK INTER:                  -2.781
REMARK INTRA:                   0.000
REMARK UNBOUND:                 0.000
REMARK  1 active torsions:
REMARK  status: ('A' for Active; 'I' for Inactive)
REMARK    1  A    between atoms: C_3  and  C_4 
ROOT
HETATM    1 Br   UNK     0      21.103  35.573   0.916  0.00  0.00    -0.096 Br
HETATM    2  C   UNK     0      20.547  36.536   2.513  0.00  0.00     0.096 C 
ENDROOT
BRANCH   2   3
HETATM    3  C   UNK     0      19.454  35.765   3.210  0.00  0.00     0.096 C 
HETATM    4 Br   UNK     0      17.853  36.866   3.321  0.00  0.00    -0.096 Br
ENDBRANCH   2   3
TORSDOF 1
ENDMDL
