MODEL 7
REMARK VINA RESULT:    -1.529      2.267      2.428
REMARK INTER + INTRA:          -1.619
REMARK INTER:                  -1.619
REMARK INTRA:                   0.000
REMARK UNBOUND:                 0.000
REMARK  1 active torsions:
REMARK  status: ('A' for Active; 'I' for Inactive)
REMARK    1  A    between atoms: C_3  and  C_4 
ROOT
HETATM    1 Br   UNK     0      21.375  36.931   1.538  0.00  0.00    -0.096 Br
HETATM    2  C   UNK     0      19.957  36.893   2.870  0.00  0.00     0.096 C 
ENDROOT
BRANCH   2   3
HETATM    3  C   UNK     0      19.531  35.467   3.110  0.00  0.00     0.096 C 
HETATM    4 Br   UNK     0      20.661  34.269   2.072  0.00  0.00    -0.096 Br
ENDBRANCH   2   3
TORSDOF 1
ENDMDL
