REMARK  1 active torsions:
REMARK  status: ('A' for Active; 'I' for Inactive)
REMARK    1  A    between atoms: C_3  and  C_4 
ROOT
HETATM    1 Br   UNK     0      23.612  35.146   0.838  0.00  0.00    -0.096 Br
HETATM    2  C   UNK     0      21.795  35.842   0.810  0.00  0.00     0.096 C 
ENDROOT
BRANCH   2   3
HETATM    3  C   UNK     0      20.817  34.694   0.810  0.00  0.00     0.096 C 
HETATM    4 Br   UNK     0      19.000  35.390   0.838  0.00  0.00    -0.096 Br
ENDBRANCH   2   3
TORSDOF 1
