MODEL 1
REMARK VINA RESULT:    -1.596      0.000      0.000
REMARK INTER + INTRA:          -1.689
REMARK INTER:                  -1.689
REMARK INTRA:                   0.000
REMARK UNBOUND:                 0.000
REMARK  1 active torsions:
REMARK  status: ('A' for Active; 'I' for Inactive)
REMARK    1  A    between atoms: C_3  and  C_4 
ROOT
HETATM    1 Br   UNK     0      21.131  36.565   1.528  0.00  0.00    -0.096 Br
HETATM    2  C   UNK     0      20.059  35.205   2.416  0.00  0.00     0.096 C 
ENDROOT
BRANCH   2   3
HETATM    3  C   UNK     0      19.133  35.864   3.407  0.00  0.00     0.096 C 
HETATM    4 Br   UNK     0      17.814  36.930   2.453  0.00  0.00    -0.096 Br
ENDBRANCH   2   3
TORSDOF 1
ENDMDL
