MODEL 1
REMARK VINA RESULT:    -3.284      0.000      0.000
REMARK INTER + INTRA:          -3.476
REMARK INTER:                  -3.476
REMARK INTRA:                   0.000
REMARK UNBOUND:                 0.000
REMARK  1 active torsions:
REMARK  status: ('A' for Active; 'I' for Inactive)
REMARK    1  A    between atoms: C_3  and  C_4 
ROOT
HETATM    1 Br   UNK     0      21.115  36.471   1.921  0.00  0.00    -0.096 Br
HETATM    2  C   UNK     0      19.697  35.370   2.674  0.00  0.00     0.096 C 
ENDROOT
BRANCH   2   3
HETATM    3  C   UNK     0      18.978  36.144   3.750  0.00  0.00     0.096 C 
HETATM    4 Br   UNK     0      17.364  36.939   3.009  0.00  0.00    -0.096 Br
ENDBRANCH   2   3
TORSDOF 1
ENDMDL
