MODEL 1
REMARK VINA RESULT:    -3.290      0.000      0.000
REMARK INTER + INTRA:          -3.482
REMARK INTER:                  -3.482
REMARK INTRA:                   0.000
REMARK UNBOUND:                 0.000
REMARK  1 active torsions:
REMARK  status: ('A' for Active; 'I' for Inactive)
REMARK    1  A    between atoms: C_3  and  C_4 
ROOT
HETATM    1 Br   UNK     0      17.322  36.916   2.390  0.00  0.00    -0.096 Br
HETATM    2  C   UNK     0      18.788  36.281   3.501  0.00  0.00     0.096 C 
ENDROOT
BRANCH   2   3
HETATM    3  C   UNK     0      19.700  35.405   2.678  0.00  0.00     0.096 C 
HETATM    4 Br   UNK     0      21.050  36.507   1.813  0.00  0.00    -0.096 Br
ENDBRANCH   2   3
TORSDOF 1
ENDMDL
