MODEL 1
REMARK VINA RESULT:    -1.942      0.000      0.000
REMARK INTER + INTRA:          -2.056
REMARK INTER:                  -2.056
REMARK INTRA:                   0.000
REMARK UNBOUND:                 0.000
REMARK  1 active torsions:
REMARK  status: ('A' for Active; 'I' for Inactive)
REMARK    1  A    between atoms: C_3  and  C_4 
ROOT
HETATM    1 Br   UNK     0      26.844  33.857  -3.169  0.00  0.00    -0.096 Br
HETATM    2  C   UNK     0      26.938  32.292  -2.016  0.00  0.00     0.096 C 
ENDROOT
BRANCH   2   3
HETATM    3  C   UNK     0      25.544  31.877  -1.617  0.00  0.00     0.096 C 
HETATM    4 Br   UNK     0      24.245  32.864  -2.678  0.00  0.00    -0.096 Br
ENDBRANCH   2   3
TORSDOF 1
ENDMDL
