MODEL 1
REMARK VINA RESULT:    -3.197      0.000      0.000
REMARK INTER + INTRA:          -3.384
REMARK INTER:                  -3.384
REMARK INTRA:                   0.000
REMARK UNBOUND:                 0.000
REMARK  1 active torsions:
REMARK  status: ('A' for Active; 'I' for Inactive)
REMARK    1  A    between atoms: C_3  and  C_4 
ROOT
HETATM    1 Br   UNK     0      17.398  37.049   3.531  0.00  0.00    -0.096 Br
HETATM    2  C   UNK     0      19.218  36.414   3.801  0.00  0.00     0.096 C 
ENDROOT
BRANCH   2   3
HETATM    3  C   UNK     0      19.625  35.546   2.637  0.00  0.00     0.096 C 
HETATM    4 Br   UNK     0      21.148  36.349   1.731  0.00  0.00    -0.096 Br
ENDBRANCH   2   3
TORSDOF 1
ENDMDL
