MODEL 1
REMARK VINA RESULT:    -3.360      0.000      0.000
REMARK INTER + INTRA:          -3.556
REMARK INTER:                  -3.556
REMARK INTRA:                   0.000
REMARK UNBOUND:                 0.000
REMARK  1 active torsions:
REMARK  status: ('A' for Active; 'I' for Inactive)
REMARK    1  A    between atoms: C_3  and  C_4 
ROOT
HETATM    1 Br   UNK     0      20.914  36.549   1.848  0.00  0.00    -0.096 Br
HETATM    2  C   UNK     0      19.644  35.474   2.858  0.00  0.00     0.096 C 
ENDROOT
BRANCH   2   3
HETATM    3  C   UNK     0      18.719  36.382   3.629  0.00  0.00     0.096 C 
HETATM    4 Br   UNK     0      19.659  37.108   5.170  0.00  0.00    -0.096 Br
ENDBRANCH   2   3
TORSDOF 1
ENDMDL
