MODEL 1
REMARK VINA RESULT:    -3.117      0.000      0.000
REMARK INTER + INTRA:          -3.299
REMARK INTER:                  -3.299
REMARK INTRA:                   0.000
REMARK UNBOUND:                 0.000
REMARK  1 active torsions:
REMARK  status: ('A' for Active; 'I' for Inactive)
REMARK    1  A    between atoms: C_3  and  C_4 
ROOT
HETATM    1 Br   UNK     0      17.762  36.909   2.334  0.00  0.00    -0.096 Br
HETATM    2  C   UNK     0      19.079  36.061   3.488  0.00  0.00     0.096 C 
ENDROOT
BRANCH   2   3
HETATM    3  C   UNK     0      20.010  35.217   2.654  0.00  0.00     0.096 C 
HETATM    4 Br   UNK     0      21.136  36.374   1.568  0.00  0.00    -0.096 Br
ENDBRANCH   2   3
TORSDOF 1
ENDMDL
