MODEL 1
REMARK VINA RESULT:    -3.346      0.000      0.000
REMARK INTER + INTRA:          -3.541
REMARK INTER:                  -3.541
REMARK INTRA:                   0.000
REMARK UNBOUND:                 0.000
REMARK  1 active torsions:
REMARK  status: ('A' for Active; 'I' for Inactive)
REMARK    1  A    between atoms: C_3  and  C_4 
ROOT
HETATM    1 Br   UNK     0      20.942  36.532   1.776  0.00  0.00    -0.096 Br
HETATM    2  C   UNK     0      19.749  35.433   2.850  0.00  0.00     0.096 C 
ENDROOT
BRANCH   2   3
HETATM    3  C   UNK     0      18.709  36.309   3.502  0.00  0.00     0.096 C 
HETATM    4 Br   UNK     0      19.429  37.056   5.148  0.00  0.00    -0.096 Br
ENDBRANCH   2   3
TORSDOF 1
ENDMDL
