MODEL 1
REMARK VINA RESULT:    87.104      0.000      0.000
REMARK INTER + INTRA:          92.196
REMARK INTER:                  92.196
REMARK INTRA:                   0.000
REMARK UNBOUND:                 0.000
REMARK  1 active torsions:
REMARK  status: ('A' for Active; 'I' for Inactive)
REMARK    1  A    between atoms: C_3  and  C_4 
ROOT
HETATM    1 Br   UNK     0      21.239  36.781   1.281  0.00  0.00    -0.096 Br
HETATM    2  C   UNK     0      20.503  35.133   2.007  0.00  0.00     0.096 C 
ENDROOT
BRANCH   2   3
HETATM    3  C   UNK     0      19.367  35.459   2.945  0.00  0.00     0.096 C 
HETATM    4 Br   UNK     0      18.360  36.968   2.243  0.00  0.00    -0.096 Br
ENDBRANCH   2   3
TORSDOF 1
ENDMDL
