MODEL 1
REMARK VINA RESULT:    -3.281      0.000      0.000
REMARK INTER + INTRA:          -3.473
REMARK INTER:                  -3.473
REMARK INTRA:                   0.000
REMARK UNBOUND:                 0.000
REMARK  1 active torsions:
REMARK  status: ('A' for Active; 'I' for Inactive)
REMARK    1  A    between atoms: C_3  and  C_4 
ROOT
HETATM    1 Br   UNK     0      19.943  37.130   5.017  0.00  0.00    -0.096 Br
HETATM    2  C   UNK     0      18.816  35.979   3.925  0.00  0.00     0.096 C 
ENDROOT
BRANCH   2   3
HETATM    3  C   UNK     0      19.026  36.305   2.468  0.00  0.00     0.096 C 
HETATM    4 Br   UNK     0      20.930  36.283   2.066  0.00  0.00    -0.096 Br
ENDBRANCH   2   3
TORSDOF 1
ENDMDL
