REMARK  1 active torsions:
REMARK  status: ('A' for Active; 'I' for Inactive)
REMARK    1  A    between atoms: C_3  and  C_4 
ROOT
HETATM    1 Br   UNK     0      21.321  35.589   2.192  0.00  0.00    -0.096 Br
HETATM    2  C   UNK     0      20.024  36.768   3.038  0.00  0.00     0.096 C 
ENDROOT
BRANCH   2   3
HETATM    3  C   UNK     0      19.062  35.949   3.860  0.00  0.00     0.096 C 
HETATM    4 Br   UNK     0      17.787  37.131   4.736  0.00  0.00    -0.096 Br
ENDBRANCH   2   3
TORSDOF 1
