MODEL 1
REMARK VINA RESULT:    -2.363      0.000      0.000
REMARK INTER + INTRA:          -2.501
REMARK INTER:                  -2.501
REMARK INTRA:                   0.000
REMARK UNBOUND:                 0.000
REMARK  1 active torsions:
REMARK  status: ('A' for Active; 'I' for Inactive)
REMARK    1  A    between atoms: C_3  and  C_4 
ROOT
HETATM    1 Br   UNK     0      17.851  36.793   2.017  0.00  0.00    -0.096 Br
HETATM    2  C   UNK     0      18.616  36.343   3.748  0.00  0.00     0.096 C 
ENDROOT
BRANCH   2   3
HETATM    3  C   UNK     0      20.087  36.678   3.749  0.00  0.00     0.096 C 
HETATM    4 Br   UNK     0      20.887  36.089   2.076  0.00  0.00    -0.096 Br
ENDBRANCH   2   3
TORSDOF 1
ENDMDL
