MODEL 1
REMARK VINA RESULT:    -1.785      0.000      0.000
REMARK INTER + INTRA:          -1.890
REMARK INTER:                  -1.890
REMARK INTRA:                   0.000
REMARK UNBOUND:                 0.000
REMARK  1 active torsions:
REMARK  status: ('A' for Active; 'I' for Inactive)
REMARK    1  A    between atoms: C_3  and  C_4 
ROOT
HETATM    1 Br   UNK     0      26.765  33.820  -3.000  0.00  0.00    -0.096 Br
HETATM    2  C   UNK     0      25.549  32.337  -2.675  0.00  0.00     0.096 C 
ENDROOT
BRANCH   2   3
HETATM    3  C   UNK     0      24.129  32.846  -2.653  0.00  0.00     0.096 C 
HETATM    4 Br   UNK     0      23.109  31.987  -4.070  0.00  0.00    -0.096 Br
ENDBRANCH   2   3
TORSDOF 1
ENDMDL
