MODEL 1
REMARK VINA RESULT:    -1.791      0.000      0.000
REMARK INTER + INTRA:          -1.896
REMARK INTER:                  -1.896
REMARK INTRA:                   0.000
REMARK UNBOUND:                 0.000
REMARK  1 active torsions:
REMARK  status: ('A' for Active; 'I' for Inactive)
REMARK    1  A    between atoms: C_3  and  C_4 
ROOT
HETATM    1 Br   UNK     0      23.105  31.925  -4.053  0.00  0.00    -0.096 Br
HETATM    2  C   UNK     0      24.099  32.833  -2.648  0.00  0.00     0.096 C 
ENDROOT
BRANCH   2   3
HETATM    3  C   UNK     0      25.521  32.332  -2.635  0.00  0.00     0.096 C 
HETATM    4 Br   UNK     0      26.728  33.797  -3.067  0.00  0.00    -0.096 Br
ENDBRANCH   2   3
TORSDOF 1
ENDMDL
