MODEL 1
REMARK VINA RESULT:    -2.792      0.000      0.000
REMARK INTER + INTRA:          -2.955
REMARK INTER:                  -2.955
REMARK INTRA:                   0.000
REMARK UNBOUND:                 0.000
REMARK  1 active torsions:
REMARK  status: ('A' for Active; 'I' for Inactive)
REMARK    1  A    between atoms: C_3  and  C_4 
ROOT
HETATM    1 Br   UNK     0      19.772  37.155   5.158  0.00  0.00    -0.096 Br
HETATM    2  C   UNK     0      18.291  36.432   4.123  0.00  0.00     0.096 C 
ENDROOT
BRANCH   2   3
HETATM    3  C   UNK     0      18.637  36.473   2.655  0.00  0.00     0.096 C 
HETATM    4 Br   UNK     0      20.549  36.194   2.431  0.00  0.00    -0.096 Br
ENDBRANCH   2   3
TORSDOF 1
ENDMDL
