MODEL 1
REMARK VINA RESULT:    -2.786      0.000      0.000
REMARK INTER + INTRA:          -2.949
REMARK INTER:                  -2.949
REMARK INTRA:                   0.000
REMARK UNBOUND:                 0.000
REMARK  1 active torsions:
REMARK  status: ('A' for Active; 'I' for Inactive)
REMARK    1  A    between atoms: C_3  and  C_4 
ROOT
HETATM    1 Br   UNK     0      17.515  36.945   3.931  0.00  0.00    -0.096 Br
HETATM    2  C   UNK     0      19.408  36.493   3.946  0.00  0.00     0.096 C 
ENDROOT
BRANCH   2   3
HETATM    3  C   UNK     0      19.736  35.662   2.732  0.00  0.00     0.096 C 
HETATM    4 Br   UNK     0      21.257  36.443   1.802  0.00  0.00    -0.096 Br
ENDBRANCH   2   3
TORSDOF 1
ENDMDL
