MODEL 1
REMARK VINA RESULT:    19.812      0.000      0.000
REMARK INTER + INTRA:          20.970
REMARK INTER:                  20.970
REMARK INTRA:                   0.000
REMARK UNBOUND:                 0.000
REMARK  1 active torsions:
REMARK  status: ('A' for Active; 'I' for Inactive)
REMARK    1  A    between atoms: C_3  and  C_4 
ROOT
HETATM    1 Br   UNK     0      17.399  36.908   2.186  0.00  0.00    -0.096 Br
HETATM    2  C   UNK     0      17.809  36.941   4.088  0.00  0.00     0.096 C 
ENDROOT
BRANCH   2   3
HETATM    3  C   UNK     0      19.256  36.571   4.297  0.00  0.00     0.096 C 
HETATM    4 Br   UNK     0      20.051  36.074   2.591  0.00  0.00    -0.096 Br
ENDBRANCH   2   3
TORSDOF 1
ENDMDL
