MODEL 1
REMARK VINA RESULT:    -1.784      0.000      0.000
REMARK INTER + INTRA:          -1.889
REMARK INTER:                  -1.889
REMARK INTRA:                   0.000
REMARK UNBOUND:                 0.000
REMARK  1 active torsions:
REMARK  status: ('A' for Active; 'I' for Inactive)
REMARK    1  A    between atoms: C_3  and  C_4 
ROOT
HETATM    1 Br   UNK     0      23.255  31.889  -4.193  0.00  0.00    -0.096 Br
HETATM    2  C   UNK     0      24.032  32.779  -2.647  0.00  0.00     0.096 C 
ENDROOT
BRANCH   2   3
HETATM    3  C   UNK     0      25.459  32.324  -2.469  0.00  0.00     0.096 C 
HETATM    4 Br   UNK     0      26.665  33.705  -3.122  0.00  0.00    -0.096 Br
ENDBRANCH   2   3
TORSDOF 1
ENDMDL
