MODEL 1
REMARK VINA RESULT:    -1.784      0.000      0.000
REMARK INTER + INTRA:          -1.888
REMARK INTER:                  -1.888
REMARK INTRA:                   0.000
REMARK UNBOUND:                 0.000
REMARK  1 active torsions:
REMARK  status: ('A' for Active; 'I' for Inactive)
REMARK    1  A    between atoms: C_3  and  C_4 
ROOT
HETATM    1 Br   UNK     0      23.217  31.914  -4.147  0.00  0.00    -0.096 Br
HETATM    2  C   UNK     0      23.981  32.836  -2.613  0.00  0.00     0.096 C 
ENDROOT
BRANCH   2   3
HETATM    3  C   UNK     0      25.411  32.395  -2.423  0.00  0.00     0.096 C 
HETATM    4 Br   UNK     0      26.610  33.770  -3.101  0.00  0.00    -0.096 Br
ENDBRANCH   2   3
TORSDOF 1
ENDMDL
