MODEL 1
REMARK VINA RESULT:    -2.820      0.000      0.000
REMARK INTER + INTRA:          -2.984
REMARK INTER:                  -2.984
REMARK INTRA:                   0.000
REMARK UNBOUND:                 0.000
REMARK  1 active torsions:
REMARK  status: ('A' for Active; 'I' for Inactive)
REMARK    1  A    between atoms: C_3  and  C_4 
ROOT
HETATM    1 Br   UNK     0      17.360  36.903   2.278  0.00  0.00    -0.096 Br
HETATM    2  C   UNK     0      17.761  36.992   4.180  0.00  0.00     0.096 C 
ENDROOT
BRANCH   2   3
HETATM    3  C   UNK     0      19.208  36.632   4.406  0.00  0.00     0.096 C 
HETATM    4 Br   UNK     0      20.017  36.107   2.715  0.00  0.00    -0.096 Br
ENDBRANCH   2   3
TORSDOF 1
ENDMDL
