MODEL 1
REMARK VINA RESULT:    -2.819      0.000      0.000
REMARK INTER + INTRA:          -2.984
REMARK INTER:                  -2.984
REMARK INTRA:                   0.000
REMARK UNBOUND:                 0.000
REMARK  1 active torsions:
REMARK  status: ('A' for Active; 'I' for Inactive)
REMARK    1  A    between atoms: C_3  and  C_4 
ROOT
HETATM    1 Br   UNK     0      19.410  37.045   5.172  0.00  0.00    -0.096 Br
HETATM    2  C   UNK     0      17.819  36.818   4.075  0.00  0.00     0.096 C 
ENDROOT
BRANCH   2   3
HETATM    3  C   UNK     0      18.224  36.629   2.634  0.00  0.00     0.096 C 
HETATM    4 Br   UNK     0      20.012  35.864   2.559  0.00  0.00    -0.096 Br
ENDBRANCH   2   3
TORSDOF 1
ENDMDL
