MODEL 1
REMARK VINA RESULT:    25.517      0.000      0.000
REMARK INTER + INTRA:          27.008
REMARK INTER:                  27.008
REMARK INTRA:                   0.000
REMARK UNBOUND:                 0.000
REMARK  1 active torsions:
REMARK  status: ('A' for Active; 'I' for Inactive)
REMARK    1  A    between atoms: C_3  and  C_4 
ROOT
HETATM    1 Br   UNK     0      18.064  37.018   2.480  0.00  0.00    -0.096 Br
HETATM    2  C   UNK     0      19.301  35.887   3.469  0.00  0.00     0.096 C 
ENDROOT
BRANCH   2   3
HETATM    3  C   UNK     0      20.277  35.251   2.510  0.00  0.00     0.096 C 
HETATM    4 Br   UNK     0      21.070  36.626   1.385  0.00  0.00    -0.096 Br
ENDBRANCH   2   3
TORSDOF 1
ENDMDL
