MODEL 1
REMARK VINA RESULT:    -2.088      0.000      0.000
REMARK INTER + INTRA:          -2.210
REMARK INTER:                  -2.210
REMARK INTRA:                   0.000
REMARK UNBOUND:                 0.000
REMARK  1 active torsions:
REMARK  status: ('A' for Active; 'I' for Inactive)
REMARK    1  A    between atoms: C_3  and  C_4 
ROOT
HETATM    1 Br   UNK     0      18.681  36.740   2.589  0.00  0.00    -0.096 Br
HETATM    2  C   UNK     0      19.768  35.177   2.993  0.00  0.00     0.096 C 
ENDROOT
BRANCH   2   3
HETATM    3  C   UNK     0      20.825  35.012   1.930  0.00  0.00     0.096 C 
HETATM    4 Br   UNK     0      21.257  36.750   1.169  0.00  0.00    -0.096 Br
ENDBRANCH   2   3
TORSDOF 1
ENDMDL
