MODEL 1
REMARK VINA RESULT:    -2.010      0.000      0.000
REMARK INTER + INTRA:          -2.127
REMARK INTER:                  -2.127
REMARK INTRA:                   0.000
REMARK UNBOUND:                 0.000
REMARK  1 active torsions:
REMARK  status: ('A' for Active; 'I' for Inactive)
REMARK    1  A    between atoms: C_3  and  C_4 
ROOT
HETATM    1 Br   UNK     0      26.081  31.500  -1.158  0.00  0.00    -0.096 Br
HETATM    2  C   UNK     0      26.848  32.890  -2.283  0.00  0.00     0.096 C 
ENDROOT
BRANCH   2   3
HETATM    3  C   UNK     0      25.789  33.425  -3.213  0.00  0.00     0.096 C 
HETATM    4 Br   UNK     0      24.030  32.912  -2.558  0.00  0.00    -0.096 Br
ENDBRANCH   2   3
TORSDOF 1
ENDMDL
