MODEL 1
REMARK VINA RESULT:    -3.290      0.000      0.000
REMARK INTER + INTRA:          -3.482
REMARK INTER:                  -3.482
REMARK INTRA:                   0.000
REMARK UNBOUND:                 0.000
REMARK  1 active torsions:
REMARK  status: ('A' for Active; 'I' for Inactive)
REMARK    1  A    between atoms: C_3  and  C_4 
ROOT
HETATM    1 Br   UNK     0      19.777  37.180   5.158  0.00  0.00    -0.096 Br
HETATM    2  C   UNK     0      18.665  36.046   4.034  0.00  0.00     0.096 C 
ENDROOT
BRANCH   2   3
HETATM    3  C   UNK     0      18.910  36.381   2.584  0.00  0.00     0.096 C 
HETATM    4 Br   UNK     0      20.785  36.084   2.157  0.00  0.00    -0.096 Br
ENDBRANCH   2   3
TORSDOF 1
ENDMDL
