MODEL 1
REMARK VINA RESULT:    -1.973      0.000      0.000
REMARK INTER + INTRA:          -2.088
REMARK INTER:                  -2.088
REMARK INTRA:                   0.000
REMARK UNBOUND:                 0.000
REMARK  1 active torsions:
REMARK  status: ('A' for Active; 'I' for Inactive)
REMARK    1  A    between atoms: C_3  and  C_4 
ROOT
HETATM    1 Br   UNK     0      26.131  31.468  -1.253  0.00  0.00    -0.096 Br
HETATM    2  C   UNK     0      26.949  32.816  -2.393  0.00  0.00     0.096 C 
ENDROOT
BRANCH   2   3
HETATM    3  C   UNK     0      25.873  33.574  -3.128  0.00  0.00     0.096 C 
HETATM    4 Br   UNK     0      24.133  32.823  -2.685  0.00  0.00    -0.096 Br
ENDBRANCH   2   3
TORSDOF 1
ENDMDL
