MODEL 1
REMARK VINA RESULT:    -2.001      0.000      0.000
REMARK INTER + INTRA:          -2.118
REMARK INTER:                  -2.118
REMARK INTRA:                   0.000
REMARK UNBOUND:                 0.000
REMARK  1 active torsions:
REMARK  status: ('A' for Active; 'I' for Inactive)
REMARK    1  A    between atoms: C_3  and  C_4 
ROOT
HETATM    1 Br   UNK     0      23.216  31.922  -4.292  0.00  0.00    -0.096 Br
HETATM    2  C   UNK     0      23.855  32.850  -2.705  0.00  0.00     0.096 C 
ENDROOT
BRANCH   2   3
HETATM    3  C   UNK     0      25.282  32.448  -2.428  0.00  0.00     0.096 C 
HETATM    4 Br   UNK     0      26.484  33.824  -3.096  0.00  0.00    -0.096 Br
ENDBRANCH   2   3
TORSDOF 1
ENDMDL
