MODEL 1
REMARK VINA RESULT:    -3.250      0.000      0.000
REMARK INTER + INTRA:          -3.440
REMARK INTER:                  -3.440
REMARK INTRA:                   0.000
REMARK UNBOUND:                 0.000
REMARK  1 active torsions:
REMARK  status: ('A' for Active; 'I' for Inactive)
REMARK    1  A    between atoms: C_3  and  C_4 
ROOT
HETATM    1 Br   UNK     0      17.518  36.864   2.593  0.00  0.00    -0.096 Br
HETATM    2  C   UNK     0      19.015  36.075   3.555  0.00  0.00     0.096 C 
ENDROOT
BRANCH   2   3
HETATM    3  C   UNK     0      19.879  35.301   2.591  0.00  0.00     0.096 C 
HETATM    4 Br   UNK     0      21.192  36.495   1.794  0.00  0.00    -0.096 Br
ENDBRANCH   2   3
TORSDOF 1
ENDMDL
