MODEL 1
REMARK VINA RESULT:    -2.571      0.000      0.000
REMARK INTER + INTRA:          -2.721
REMARK INTER:                  -2.721
REMARK INTRA:                   0.000
REMARK UNBOUND:                 0.000
REMARK  1 active torsions:
REMARK  status: ('A' for Active; 'I' for Inactive)
REMARK    1  A    between atoms: C_3  and  C_4 
ROOT
HETATM    1 Br   UNK     0      18.335  36.872   2.778  0.00  0.00    -0.096 Br
HETATM    2  C   UNK     0      19.458  35.406   3.393  0.00  0.00     0.096 C 
ENDROOT
BRANCH   2   3
HETATM    3  C   UNK     0      20.361  34.960   2.271  0.00  0.00     0.096 C 
HETATM    4 Br   UNK     0      21.303  36.499   1.544  0.00  0.00    -0.096 Br
ENDBRANCH   2   3
TORSDOF 1
ENDMDL
