MODEL 1
REMARK VINA RESULT:    -1.943      0.000      0.000
REMARK INTER + INTRA:          -2.057
REMARK INTER:                  -2.057
REMARK INTRA:                   0.000
REMARK UNBOUND:                 0.000
REMARK  1 active torsions:
REMARK  status: ('A' for Active; 'I' for Inactive)
REMARK    1  A    between atoms: C_3  and  C_4 
ROOT
HETATM    1 Br   UNK     0      26.233  31.533  -1.034  0.00  0.00    -0.096 Br
HETATM    2  C   UNK     0      26.762  32.847  -2.368  0.00  0.00     0.096 C 
ENDROOT
BRANCH   2   3
HETATM    3  C   UNK     0      25.675  32.975  -3.406  0.00  0.00     0.096 C 
HETATM    4 Br   UNK     0      23.936  32.907  -2.536  0.00  0.00    -0.096 Br
ENDBRANCH   2   3
TORSDOF 1
ENDMDL
