MODEL 1
REMARK VINA RESULT:     7.191      0.000      0.000
REMARK INTER + INTRA:           7.611
REMARK INTER:                   7.611
REMARK INTRA:                   0.000
REMARK UNBOUND:                 0.000
REMARK  1 active torsions:
REMARK  status: ('A' for Active; 'I' for Inactive)
REMARK    1  A    between atoms: C_3  and  C_4 
ROOT
HETATM    1 Br   UNK     0      18.064  36.995   2.568  0.00  0.00    -0.096 Br
HETATM    2  C   UNK     0      19.188  35.687   3.470  0.00  0.00     0.096 C 
ENDROOT
BRANCH   2   3
HETATM    3  C   UNK     0      20.210  35.149   2.501  0.00  0.00     0.096 C 
HETATM    4 Br   UNK     0      21.066  36.629   1.571  0.00  0.00    -0.096 Br
ENDBRANCH   2   3
TORSDOF 1
ENDMDL
