MODEL 1
REMARK VINA RESULT:    -2.276      0.000      0.000
REMARK INTER + INTRA:          -2.409
REMARK INTER:                  -2.409
REMARK INTRA:                   0.000
REMARK UNBOUND:                 0.000
REMARK  1 active torsions:
REMARK  status: ('A' for Active; 'I' for Inactive)
REMARK    1  A    between atoms: C_3  and  C_4 
ROOT
HETATM    1 Br   UNK     0      21.336  36.468   1.175  0.00  0.00    -0.096 Br
HETATM    2  C   UNK     0      20.525  34.937   2.062  0.00  0.00     0.096 C 
ENDROOT
BRANCH   2   3
HETATM    3  C   UNK     0      19.588  35.420   3.140  0.00  0.00     0.096 C 
HETATM    4 Br   UNK     0      18.574  36.945   2.483  0.00  0.00    -0.096 Br
ENDBRANCH   2   3
TORSDOF 1
ENDMDL
