MODEL 1
REMARK VINA RESULT:    -2.386      0.000      0.000
REMARK INTER + INTRA:          -2.526
REMARK INTER:                  -2.526
REMARK INTRA:                   0.000
REMARK UNBOUND:                 0.000
REMARK  1 active torsions:
REMARK  status: ('A' for Active; 'I' for Inactive)
REMARK    1  A    between atoms: C_3  and  C_4 
ROOT
HETATM    1 Br   UNK     0      18.488  36.721   2.464  0.00  0.00    -0.096 Br
HETATM    2  C   UNK     0      19.597  35.259   3.114  0.00  0.00     0.096 C 
ENDROOT
BRANCH   2   3
HETATM    3  C   UNK     0      20.711  34.998   2.132  0.00  0.00     0.096 C 
HETATM    4 Br   UNK     0      21.321  36.687   1.380  0.00  0.00    -0.096 Br
ENDBRANCH   2   3
TORSDOF 1
ENDMDL
