REMARK  1 active torsions:
REMARK  status: ('A' for Active; 'I' for Inactive)
REMARK    1  A    between atoms: C_3  and  C_4 
ROOT
HETATM    1 Br   UNK     0      26.043  33.099  -2.350  0.00  0.00    -0.096 Br
HETATM    2  C   UNK     0      25.878  31.530  -1.209  0.00  0.00     0.096 C 
ENDROOT
BRANCH   2   3
HETATM    3  C   UNK     0      26.965  30.542  -1.555  0.00  0.00     0.096 C 
HETATM    4 Br   UNK     0      27.998  30.129   0.041  0.00  0.00    -0.096 Br
ENDBRANCH   2   3
TORSDOF 1
