MODEL 8
REMARK VINA RESULT:    -2.203      1.386      1.386
REMARK INTER + INTRA:          -2.332
REMARK INTER:                  -2.332
REMARK INTRA:                   0.000
REMARK UNBOUND:                 0.000
REMARK  1 active torsions:
REMARK  status: ('A' for Active; 'I' for Inactive)
REMARK    1  A    between atoms: C_3  and  C_4 
ROOT
HETATM    1 Br   UNK     0      19.296  36.650   4.509  0.00  0.00    -0.096 Br
HETATM    2  C   UNK     0      20.222  36.765   2.801  0.00  0.00     0.096 C 
ENDROOT
BRANCH   2   3
HETATM    3  C   UNK     0      20.412  35.378   2.238  0.00  0.00     0.096 C 
HETATM    4 Br   UNK     0      21.522  35.473   0.643  0.00  0.00    -0.096 Br
ENDBRANCH   2   3
TORSDOF 1
ENDMDL
