MODEL 8
REMARK VINA RESULT:    -1.643      1.989      3.060
REMARK INTER + INTRA:          -1.739
REMARK INTER:                  -1.739
REMARK INTRA:                   0.000
REMARK UNBOUND:                 0.000
REMARK  1 active torsions:
REMARK  status: ('A' for Active; 'I' for Inactive)
REMARK    1  A    between atoms: C_3  and  C_4 
ROOT
HETATM    1 Br   UNK     0      20.645  34.127   1.979  0.00  0.00    -0.096 Br
HETATM    2  C   UNK     0      20.635  36.064   1.791  0.00  0.00     0.096 C 
ENDROOT
BRANCH   2   3
HETATM    3  C   UNK     0      20.145  36.691   3.073  0.00  0.00     0.096 C 
HETATM    4 Br   UNK     0      18.202  36.793   3.043  0.00  0.00    -0.096 Br
ENDBRANCH   2   3
TORSDOF 1
ENDMDL
