MODEL 7
REMARK VINA RESULT:    -2.108      0.908      2.609
REMARK INTER + INTRA:          -2.231
REMARK INTER:                  -2.231
REMARK INTRA:                   0.000
REMARK UNBOUND:                 0.000
REMARK  1 active torsions:
REMARK  status: ('A' for Active; 'I' for Inactive)
REMARK    1  A    between atoms: C_3  and  C_4 
ROOT
HETATM    1 Br   UNK     0      21.059  36.709   1.653  0.00  0.00    -0.096 Br
HETATM    2  C   UNK     0      20.247  35.046   2.252  0.00  0.00     0.096 C 
ENDROOT
BRANCH   2   3
HETATM    3  C   UNK     0      19.323  35.326   3.411  0.00  0.00     0.096 C 
HETATM    4 Br   UNK     0      19.507  37.187   3.951  0.00  0.00    -0.096 Br
ENDBRANCH   2   3
TORSDOF 1
ENDMDL
