REMARK  1 active torsions:
REMARK  status: ('A' for Active; 'I' for Inactive)
REMARK    1  A    between atoms: C_3  and  C_4 
ROOT
HETATM    1 Br   UNK     0      23.378  33.702  -1.913  0.00  0.00    -0.096 Br
HETATM    2  C   UNK     0      25.050  33.372  -2.852  0.00  0.00     0.096 C 
ENDROOT
BRANCH   2   3
HETATM    3  C   UNK     0      25.117  31.924  -3.266  0.00  0.00     0.096 C 
HETATM    4 Br   UNK     0      24.098  31.670  -4.905  0.00  0.00    -0.096 Br
ENDBRANCH   2   3
TORSDOF 1
