REMARK  1 active torsions:
REMARK  status: ('A' for Active; 'I' for Inactive)
REMARK    1  A    between atoms: C_3  and  C_4 
ROOT
HETATM    1 Br   UNK     0      20.741  35.777   2.099  0.00  0.00    -0.096 Br
HETATM    2  C   UNK     0      20.081  36.763   3.642  0.00  0.00     0.096 C 
ENDROOT
BRANCH   2   3
HETATM    3  C   UNK     0      18.836  36.095   4.169  0.00  0.00     0.096 C 
HETATM    4 Br   UNK     0      17.265  37.000   3.461  0.00  0.00    -0.096 Br
ENDBRANCH   2   3
TORSDOF 1
