REMARK  1 active torsions:
REMARK  status: ('A' for Active; 'I' for Inactive)
REMARK    1  A    between atoms: C_3  and  C_4 
ROOT
HETATM    1 Br   UNK     0      26.238  32.439  -2.407  0.00  0.00    -0.096 Br
HETATM    2  C   UNK     0      26.445  30.578  -1.883  0.00  0.00     0.096 C 
ENDROOT
BRANCH   2   3
HETATM    3  C   UNK     0      27.884  30.162  -2.062  0.00  0.00     0.096 C 
HETATM    4 Br   UNK     0      28.270  28.648  -0.901  0.00  0.00    -0.096 Br
ENDBRANCH   2   3
TORSDOF 1
