REMARK  1 active torsions:
REMARK  status: ('A' for Active; 'I' for Inactive)
REMARK    1  A    between atoms: C_3  and  C_4 
ROOT
HETATM    1 Br   UNK     0      18.746  36.435   4.311  0.00  0.00    -0.096 Br
HETATM    2  C   UNK     0      19.333  36.643   2.468  0.00  0.00     0.096 C 
ENDROOT
BRANCH   2   3
HETATM    3  C   UNK     0      20.840  36.610   2.413  0.00  0.00     0.096 C 
HETATM    4 Br   UNK     0      21.411  35.358   1.037  0.00  0.00    -0.096 Br
ENDBRANCH   2   3
TORSDOF 1
