REMARK  1 active torsions:
REMARK  status: ('A' for Active; 'I' for Inactive)
REMARK    1  A    between atoms: C_3  and  C_4 
ROOT
HETATM    1 Br   UNK     0      26.415  33.118  -2.759  0.00  0.00    -0.096 Br
HETATM    2  C   UNK     0      25.516  32.500  -4.372  0.00  0.00     0.096 C 
ENDROOT
BRANCH   2   3
HETATM    3  C   UNK     0      26.013  31.121  -4.728  0.00  0.00     0.096 C 
HETATM    4 Br   UNK     0      25.308  30.606  -6.466  0.00  0.00    -0.096 Br
ENDBRANCH   2   3
TORSDOF 1
