MODEL 3
REMARK VINA RESULT:    -3.288      1.640      1.640
REMARK INTER + INTRA:          -3.480
REMARK INTER:                  -3.480
REMARK INTRA:                   0.000
REMARK UNBOUND:                 0.000
REMARK  1 active torsions:
REMARK  status: ('A' for Active; 'I' for Inactive)
REMARK    1  A    between atoms: C_3  and  C_4 
ROOT
HETATM    1 Br   UNK     0      17.402  36.933   2.708  0.00  0.00    -0.096 Br
HETATM    2  C   UNK     0      18.930  36.115   3.592  0.00  0.00     0.096 C 
ENDROOT
BRANCH   2   3
HETATM    3  C   UNK     0      19.746  35.352   2.579  0.00  0.00     0.096 C 
HETATM    4 Br   UNK     0      21.073  36.536   1.790  0.00  0.00    -0.096 Br
ENDBRANCH   2   3
TORSDOF 1
ENDMDL
