MODEL 8
REMARK VINA RESULT:    -1.518      2.189      2.439
REMARK INTER + INTRA:          -1.607
REMARK INTER:                  -1.607
REMARK INTRA:                   0.000
REMARK UNBOUND:                 0.000
REMARK  1 active torsions:
REMARK  status: ('A' for Active; 'I' for Inactive)
REMARK    1  A    between atoms: C_3  and  C_4 
ROOT
HETATM    1 Br   UNK     0      21.348  36.997   1.597  0.00  0.00    -0.096 Br
HETATM    2  C   UNK     0      20.149  36.835   3.121  0.00  0.00     0.096 C 
ENDROOT
BRANCH   2   3
HETATM    3  C   UNK     0      19.536  35.458   3.134  0.00  0.00     0.096 C 
HETATM    4 Br   UNK     0      20.597  34.265   2.020  0.00  0.00    -0.096 Br
ENDBRANCH   2   3
TORSDOF 1
ENDMDL
