MODEL 2
REMARK VINA RESULT:    -3.298      1.929      1.964
REMARK INTER + INTRA:          -3.491
REMARK INTER:                  -3.491
REMARK INTRA:                   0.000
REMARK UNBOUND:                 0.000
REMARK  1 active torsions:
REMARK  status: ('A' for Active; 'I' for Inactive)
REMARK    1  A    between atoms: C_3  and  C_4 
ROOT
HETATM    1 Br   UNK     0      17.442  36.915   2.359  0.00  0.00    -0.096 Br
HETATM    2  C   UNK     0      18.825  36.217   3.536  0.00  0.00     0.096 C 
ENDROOT
BRANCH   2   3
HETATM    3  C   UNK     0      19.793  35.383   2.735  0.00  0.00     0.096 C 
HETATM    4 Br   UNK     0      21.030  36.551   1.792  0.00  0.00    -0.096 Br
ENDBRANCH   2   3
TORSDOF 1
ENDMDL
