MODEL 8
REMARK VINA RESULT:    -1.506      2.235      2.499
REMARK INTER + INTRA:          -1.595
REMARK INTER:                  -1.595
REMARK INTRA:                   0.000
REMARK UNBOUND:                 0.000
REMARK  1 active torsions:
REMARK  status: ('A' for Active; 'I' for Inactive)
REMARK    1  A    between atoms: C_3  and  C_4 
ROOT
HETATM    1 Br   UNK     0      20.543  34.214   2.155  0.00  0.00    -0.096 Br
HETATM    2  C   UNK     0      19.535  35.487   3.227  0.00  0.00     0.096 C 
ENDROOT
BRANCH   2   3
HETATM    3  C   UNK     0      20.131  36.863   3.066  0.00  0.00     0.096 C 
HETATM    4 Br   UNK     0      21.255  36.900   1.478  0.00  0.00    -0.096 Br
ENDBRANCH   2   3
TORSDOF 1
ENDMDL
