MODEL 7
REMARK VINA RESULT:    -1.938      1.830      3.050
REMARK INTER + INTRA:          -2.052
REMARK INTER:                  -2.052
REMARK INTRA:                   0.000
REMARK UNBOUND:                 0.000
REMARK  1 active torsions:
REMARK  status: ('A' for Active; 'I' for Inactive)
REMARK    1  A    between atoms: C_3  and  C_4 
ROOT
HETATM    1 Br   UNK     0      20.368  34.632   2.032  0.00  0.00    -0.096 Br
HETATM    2  C   UNK     0      20.777  36.531   1.914  0.00  0.00     0.096 C 
ENDROOT
BRANCH   2   3
HETATM    3  C   UNK     0      20.379  37.211   3.199  0.00  0.00     0.096 C 
HETATM    4 Br   UNK     0      18.969  36.188   4.065  0.00  0.00    -0.096 Br
ENDBRANCH   2   3
TORSDOF 1
ENDMDL
