REMARK  1 active torsions:
REMARK  status: ('A' for Active; 'I' for Inactive)
REMARK    1  A    between atoms: C_3  and  C_4 
ROOT
HETATM    1 Br   UNK     0      23.310  35.263   1.645  0.00  0.00    -0.096 Br
HETATM    2  C   UNK     0      21.493  35.959   1.617  0.00  0.00     0.096 C 
ENDROOT
BRANCH   2   3
HETATM    3  C   UNK     0      20.515  34.811   1.617  0.00  0.00     0.096 C 
HETATM    4 Br   UNK     0      18.698  35.507   1.645  0.00  0.00    -0.096 Br
ENDBRANCH   2   3
TORSDOF 1
