MODEL 7
REMARK VINA RESULT:    -1.509      2.155      2.287
REMARK INTER + INTRA:          -1.598
REMARK INTER:                  -1.598
REMARK INTRA:                   0.000
REMARK UNBOUND:                 0.000
REMARK  1 active torsions:
REMARK  status: ('A' for Active; 'I' for Inactive)
REMARK    1  A    between atoms: C_3  and  C_4 
ROOT
HETATM    1 Br   UNK     0      20.607  34.265   2.221  0.00  0.00    -0.096 Br
HETATM    2  C   UNK     0      19.463  35.484   3.216  0.00  0.00     0.096 C 
ENDROOT
BRANCH   2   3
HETATM    3  C   UNK     0      19.816  36.907   2.861  0.00  0.00     0.096 C 
HETATM    4 Br   UNK     0      21.217  36.910   1.510  0.00  0.00    -0.096 Br
ENDBRANCH   2   3
TORSDOF 1
ENDMDL
