MODEL 3
REMARK VINA RESULT:    -3.288      1.812      1.833
REMARK INTER + INTRA:          -3.480
REMARK INTER:                  -3.480
REMARK INTRA:                   0.000
REMARK UNBOUND:                 0.000
REMARK  1 active torsions:
REMARK  status: ('A' for Active; 'I' for Inactive)
REMARK    1  A    between atoms: C_3  and  C_4 
ROOT
HETATM    1 Br   UNK     0      20.903  36.521   1.832  0.00  0.00    -0.096 Br
HETATM    2  C   UNK     0      19.671  35.431   2.872  0.00  0.00     0.096 C 
ENDROOT
BRANCH   2   3
HETATM    3  C   UNK     0      18.661  36.323   3.550  0.00  0.00     0.096 C 
HETATM    4 Br   UNK     0      17.369  36.953   2.238  0.00  0.00    -0.096 Br
ENDBRANCH   2   3
TORSDOF 1
ENDMDL
