MODEL 1
REMARK VINA RESULT:    -3.317      0.000      0.000
REMARK INTER + INTRA:          -3.511
REMARK INTER:                  -3.511
REMARK INTRA:                   0.000
REMARK UNBOUND:                 0.000
REMARK  1 active torsions:
REMARK  status: ('A' for Active; 'I' for Inactive)
REMARK    1  A    between atoms: C_3  and  C_4 
ROOT
HETATM    1 Br   UNK     0      20.882  36.234   2.093  0.00  0.00    -0.096 Br
HETATM    2  C   UNK     0      18.995  36.394   2.540  0.00  0.00     0.096 C 
ENDROOT
BRANCH   2   3
HETATM    3  C   UNK     0      18.786  36.004   3.982  0.00  0.00     0.096 C 
HETATM    4 Br   UNK     0      19.838  37.172   5.128  0.00  0.00    -0.096 Br
ENDBRANCH   2   3
TORSDOF 1
ENDMDL
