REMARK  1 active torsions:
REMARK  status: ('A' for Active; 'I' for Inactive)
REMARK    1  A    between atoms: C_3  and  C_4 
ROOT
HETATM    1 Br   UNK     0      22.930  35.450   2.086  0.00  0.00    -0.096 Br
HETATM    2  C   UNK     0      21.113  36.146   2.058  0.00  0.00     0.096 C 
ENDROOT
BRANCH   2   3
HETATM    3  C   UNK     0      20.135  34.998   2.058  0.00  0.00     0.096 C 
HETATM    4 Br   UNK     0      18.318  35.694   2.086  0.00  0.00    -0.096 Br
ENDBRANCH   2   3
TORSDOF 1
