MODEL 1
REMARK VINA RESULT:    -2.790      0.000      0.000
REMARK INTER + INTRA:          -2.953
REMARK INTER:                  -2.953
REMARK INTRA:                   0.000
REMARK UNBOUND:                 0.000
REMARK  1 active torsions:
REMARK  status: ('A' for Active; 'I' for Inactive)
REMARK    1  A    between atoms: C_3  and  C_4 
ROOT
HETATM    1 Br   UNK     0      18.203  36.936   2.495  0.00  0.00    -0.096 Br
HETATM    2  C   UNK     0      19.312  35.595   3.366  0.00  0.00     0.096 C 
ENDROOT
BRANCH   2   3
HETATM    3  C   UNK     0      20.336  35.076   2.387  0.00  0.00     0.096 C 
HETATM    4 Br   UNK     0      21.199  36.575   1.496  0.00  0.00    -0.096 Br
ENDBRANCH   2   3
TORSDOF 1
ENDMDL
