MODEL 1
REMARK VINA RESULT:    -2.322      0.000      0.000
REMARK INTER + INTRA:          -2.458
REMARK INTER:                  -2.458
REMARK INTRA:                   0.000
REMARK UNBOUND:                 0.000
REMARK  1 active torsions:
REMARK  status: ('A' for Active; 'I' for Inactive)
REMARK    1  A    between atoms: C_3  and  C_4 
ROOT
HETATM    1 Br   UNK     0      21.195  36.680   1.416  0.00  0.00    -0.096 Br
HETATM    2  C   UNK     0      20.582  34.965   2.102  0.00  0.00     0.096 C 
ENDROOT
BRANCH   2   3
HETATM    3  C   UNK     0      19.608  35.194   3.231  0.00  0.00     0.096 C 
HETATM    4 Br   UNK     0      18.488  36.730   2.819  0.00  0.00    -0.096 Br
ENDBRANCH   2   3
TORSDOF 1
ENDMDL
