MODEL 1
REMARK VINA RESULT:    -2.613      0.000      0.000
REMARK INTER + INTRA:          -2.766
REMARK INTER:                  -2.766
REMARK INTRA:                   0.000
REMARK UNBOUND:                 0.000
REMARK  1 active torsions:
REMARK  status: ('A' for Active; 'I' for Inactive)
REMARK    1  A    between atoms: C_3  and  C_4 
ROOT
HETATM    1 Br   UNK     0      21.337  36.521   1.493  0.00  0.00    -0.096 Br
HETATM    2  C   UNK     0      20.439  34.986   2.284  0.00  0.00     0.096 C 
ENDROOT
BRANCH   2   3
HETATM    3  C   UNK     0      19.458  35.460   3.327  0.00  0.00     0.096 C 
HETATM    4 Br   UNK     0      18.336  36.859   2.572  0.00  0.00    -0.096 Br
ENDBRANCH   2   3
TORSDOF 1
ENDMDL
