MODEL 1
REMARK VINA RESULT:    -3.238      0.000      0.000
REMARK INTER + INTRA:          -3.427
REMARK INTER:                  -3.427
REMARK INTRA:                   0.000
REMARK UNBOUND:                 0.000
REMARK  1 active torsions:
REMARK  status: ('A' for Active; 'I' for Inactive)
REMARK    1  A    between atoms: C_3  and  C_4 
ROOT
HETATM    1 Br   UNK     0      17.515  36.868   2.523  0.00  0.00    -0.096 Br
HETATM    2  C   UNK     0      19.002  36.096   3.512  0.00  0.00     0.096 C 
ENDROOT
BRANCH   2   3
HETATM    3  C   UNK     0      19.881  35.314   2.568  0.00  0.00     0.096 C 
HETATM    4 Br   UNK     0      21.246  36.488   1.829  0.00  0.00    -0.096 Br
ENDBRANCH   2   3
TORSDOF 1
ENDMDL
