MODEL 1
REMARK VINA RESULT:    -3.095      0.000      0.000
REMARK INTER + INTRA:          -3.276
REMARK INTER:                  -3.276
REMARK INTRA:                   0.000
REMARK UNBOUND:                 0.000
REMARK  1 active torsions:
REMARK  status: ('A' for Active; 'I' for Inactive)
REMARK    1  A    between atoms: C_3  and  C_4 
ROOT
HETATM    1 Br   UNK     0      17.850  36.928   2.317  0.00  0.00    -0.096 Br
HETATM    2  C   UNK     0      19.118  35.966   3.437  0.00  0.00     0.096 C 
ENDROOT
BRANCH   2   3
HETATM    3  C   UNK     0      20.090  35.214   2.563  0.00  0.00     0.096 C 
HETATM    4 Br   UNK     0      21.224  36.480   1.615  0.00  0.00    -0.096 Br
ENDBRANCH   2   3
TORSDOF 1
ENDMDL
