MODEL 1
REMARK VINA RESULT:    -3.282      0.000      0.000
REMARK INTER + INTRA:          -3.474
REMARK INTER:                  -3.474
REMARK INTRA:                   0.000
REMARK UNBOUND:                 0.000
REMARK  1 active torsions:
REMARK  status: ('A' for Active; 'I' for Inactive)
REMARK    1  A    between atoms: C_3  and  C_4 
ROOT
HETATM    1 Br   UNK     0      17.339  36.889   2.623  0.00  0.00    -0.096 Br
HETATM    2  C   UNK     0      18.898  36.256   3.600  0.00  0.00     0.096 C 
ENDROOT
BRANCH   2   3
HETATM    3  C   UNK     0      19.760  35.422   2.686  0.00  0.00     0.096 C 
HETATM    4 Br   UNK     0      21.066  36.565   1.805  0.00  0.00    -0.096 Br
ENDBRANCH   2   3
TORSDOF 1
ENDMDL
