MODEL 1
REMARK VINA RESULT:    -3.166      0.000      0.000
REMARK INTER + INTRA:          -3.351
REMARK INTER:                  -3.351
REMARK INTRA:                   0.000
REMARK UNBOUND:                 0.000
REMARK  1 active torsions:
REMARK  status: ('A' for Active; 'I' for Inactive)
REMARK    1  A    between atoms: C_3  and  C_4 
ROOT
HETATM    1 Br   UNK     0      17.680  36.803   2.368  0.00  0.00    -0.096 Br
HETATM    2  C   UNK     0      18.819  36.085   3.774  0.00  0.00     0.096 C 
ENDROOT
BRANCH   2   3
HETATM    3  C   UNK     0      20.167  36.759   3.721  0.00  0.00     0.096 C 
HETATM    4 Br   UNK     0      20.995  36.421   1.993  0.00  0.00    -0.096 Br
ENDBRANCH   2   3
TORSDOF 1
ENDMDL
