MODEL 1
REMARK VINA RESULT:    -2.018      0.000      0.000
REMARK INTER + INTRA:          -2.136
REMARK INTER:                  -2.136
REMARK INTRA:                   0.000
REMARK UNBOUND:                 0.000
REMARK  1 active torsions:
REMARK  status: ('A' for Active; 'I' for Inactive)
REMARK    1  A    between atoms: C_3  and  C_4 
ROOT
HETATM    1 Br   UNK     0      24.133  32.852  -2.663  0.00  0.00    -0.096 Br
HETATM    2  C   UNK     0      25.884  33.621  -3.021  0.00  0.00     0.096 C 
ENDROOT
BRANCH   2   3
HETATM    3  C   UNK     0      26.933  32.869  -2.241  0.00  0.00     0.096 C 
HETATM    4 Br   UNK     0      26.074  31.517  -1.136  0.00  0.00    -0.096 Br
ENDBRANCH   2   3
TORSDOF 1
ENDMDL
