MODEL 1
REMARK VINA RESULT:    -1.972      0.000      0.000
REMARK INTER + INTRA:          -2.087
REMARK INTER:                  -2.087
REMARK INTRA:                   0.000
REMARK UNBOUND:                 0.000
REMARK  1 active torsions:
REMARK  status: ('A' for Active; 'I' for Inactive)
REMARK    1  A    between atoms: C_3  and  C_4 
ROOT
HETATM    1 Br   UNK     0      26.115  31.458  -1.211  0.00  0.00    -0.096 Br
HETATM    2  C   UNK     0      26.773  32.891  -2.352  0.00  0.00     0.096 C 
ENDROOT
BRANCH   2   3
HETATM    3  C   UNK     0      25.701  33.281  -3.338  0.00  0.00     0.096 C 
HETATM    4 Br   UNK     0      23.950  32.936  -2.562  0.00  0.00    -0.096 Br
ENDBRANCH   2   3
TORSDOF 1
ENDMDL
