MODEL 1
REMARK VINA RESULT:    -2.014      0.000      0.000
REMARK INTER + INTRA:          -2.132
REMARK INTER:                  -2.132
REMARK INTRA:                   0.000
REMARK UNBOUND:                 0.000
REMARK  1 active torsions:
REMARK  status: ('A' for Active; 'I' for Inactive)
REMARK    1  A    between atoms: C_3  and  C_4 
ROOT
HETATM    1 Br   UNK     0      26.075  31.483  -1.169  0.00  0.00    -0.096 Br
HETATM    2  C   UNK     0      26.924  32.822  -2.299  0.00  0.00     0.096 C 
ENDROOT
BRANCH   2   3
HETATM    3  C   UNK     0      25.865  33.594  -3.045  0.00  0.00     0.096 C 
HETATM    4 Br   UNK     0      24.110  32.873  -2.612  0.00  0.00    -0.096 Br
ENDBRANCH   2   3
TORSDOF 1
ENDMDL
