MODEL 1
REMARK VINA RESULT:    -1.982      0.000      0.000
REMARK INTER + INTRA:          -2.098
REMARK INTER:                  -2.098
REMARK INTRA:                   0.000
REMARK UNBOUND:                 0.000
REMARK  1 active torsions:
REMARK  status: ('A' for Active; 'I' for Inactive)
REMARK    1  A    between atoms: C_3  and  C_4 
ROOT
HETATM    1 Br   UNK     0      24.028  32.912  -2.564  0.00  0.00    -0.096 Br
HETATM    2  C   UNK     0      25.790  33.272  -3.307  0.00  0.00     0.096 C 
ENDROOT
BRANCH   2   3
HETATM    3  C   UNK     0      26.848  32.869  -2.310  0.00  0.00     0.096 C 
HETATM    4 Br   UNK     0      26.132  31.508  -1.118  0.00  0.00    -0.096 Br
ENDBRANCH   2   3
TORSDOF 1
ENDMDL
