REMARK  1 active torsions:
REMARK  status: ('A' for Active; 'I' for Inactive)
REMARK    1  A    between atoms: C_3  and  C_4 
ROOT
HETATM    1 Br   UNK     0      21.363  35.732   2.218  0.00  0.00    -0.096 Br
HETATM    2  C   UNK     0      19.901  36.851   2.847  0.00  0.00     0.096 C 
ENDROOT
BRANCH   2   3
HETATM    3  C   UNK     0      18.798  35.978   3.391  0.00  0.00     0.096 C 
HETATM    4 Br   UNK     0      17.475  37.088   4.287  0.00  0.00    -0.096 Br
ENDBRANCH   2   3
TORSDOF 1
