REMARK  1 active torsions:
REMARK  status: ('A' for Active; 'I' for Inactive)
REMARK    1  A    between atoms: C_3  and  C_4 
ROOT
HETATM    1 Br   UNK     0      21.944  35.881   2.702  0.00  0.00    -0.096 Br
HETATM    2  C   UNK     0      20.127  36.577   2.674  0.00  0.00     0.096 C 
ENDROOT
BRANCH   2   3
HETATM    3  C   UNK     0      19.149  35.429   2.674  0.00  0.00     0.096 C 
HETATM    4 Br   UNK     0      17.332  36.125   2.702  0.00  0.00    -0.096 Br
ENDBRANCH   2   3
TORSDOF 1
