REMARK  1 active torsions:
REMARK  status: ('A' for Active; 'I' for Inactive)
REMARK    1  A    between atoms: C_3  and  C_4 
ROOT
HETATM    1 Br   UNK     0      20.997  35.396   1.647  0.00  0.00    -0.096 Br
HETATM    2  C   UNK     0      20.471  36.652   3.037  0.00  0.00     0.096 C 
ENDROOT
BRANCH   2   3
HETATM    3  C   UNK     0      19.237  36.140   3.736  0.00  0.00     0.096 C 
HETATM    4 Br   UNK     0      18.941  37.164   5.364  0.00  0.00    -0.096 Br
ENDBRANCH   2   3
TORSDOF 1
