REMARK  1 active torsions:
REMARK  status: ('A' for Active; 'I' for Inactive)
REMARK    1  A    between atoms: C_3  and  C_4 
ROOT
HETATM    1 Br   UNK     0      21.194  35.364   1.606  0.00  0.00    -0.096 Br
HETATM    2  C   UNK     0      20.066  36.614   2.583  0.00  0.00     0.096 C 
ENDROOT
BRANCH   2   3
HETATM    3  C   UNK     0      19.180  35.851   3.536  0.00  0.00     0.096 C 
HETATM    4 Br   UNK     0      17.758  37.017   4.171  0.00  0.00    -0.096 Br
ENDBRANCH   2   3
TORSDOF 1
