REMARK  1 active torsions:
REMARK  status: ('A' for Active; 'I' for Inactive)
REMARK    1  A    between atoms: C_3  and  C_4 
ROOT
HETATM    1 Br   UNK     0      26.605  32.841  -2.368  0.00  0.00    -0.096 Br
HETATM    2  C   UNK     0      24.757  32.688  -2.954  0.00  0.00     0.096 C 
ENDROOT
BRANCH   2   3
HETATM    3  C   UNK     0      24.663  31.671  -4.065  0.00  0.00     0.096 C 
HETATM    4 Br   UNK     0      22.961  31.872  -4.987  0.00  0.00    -0.096 Br
ENDBRANCH   2   3
TORSDOF 1
