REMARK  1 active torsions:
REMARK  status: ('A' for Active; 'I' for Inactive)
REMARK    1  A    between atoms: C_3  and  C_4 
ROOT
HETATM    1 Br   UNK     0      21.094  35.349   1.784  0.00  0.00    -0.096 Br
HETATM    2  C   UNK     0      20.345  36.698   2.971  0.00  0.00     0.096 C 
ENDROOT
BRANCH   2   3
HETATM    3  C   UNK     0      19.286  36.069   3.842  0.00  0.00     0.096 C 
HETATM    4 Br   UNK     0      19.113  37.089   5.490  0.00  0.00    -0.096 Br
ENDBRANCH   2   3
TORSDOF 1
