REMARK  1 active torsions:
REMARK  status: ('A' for Active; 'I' for Inactive)
REMARK    1  A    between atoms: C_3  and  C_4 
ROOT
HETATM    1 Br   UNK     0      20.651  35.184   1.854  0.00  0.00    -0.096 Br
HETATM    2  C   UNK     0      20.261  36.581   3.150  0.00  0.00     0.096 C 
ENDROOT
BRANCH   2   3
HETATM    3  C   UNK     0      19.129  36.137   4.044  0.00  0.00     0.096 C 
HETATM    4 Br   UNK     0      19.253  37.057   5.754  0.00  0.00    -0.096 Br
ENDBRANCH   2   3
TORSDOF 1
