REMARK  1 active torsions:
REMARK  status: ('A' for Active; 'I' for Inactive)
REMARK    1  A    between atoms: C_3  and  C_4 
ROOT
HETATM    1 Br   UNK     0      21.181  35.723   2.168  0.00  0.00    -0.096 Br
HETATM    2  C   UNK     0      19.879  36.950   2.935  0.00  0.00     0.096 C 
ENDROOT
BRANCH   2   3
HETATM    3  C   UNK     0      18.728  36.165   3.510  0.00  0.00     0.096 C 
HETATM    4 Br   UNK     0      17.589  37.353   4.549  0.00  0.00    -0.096 Br
ENDBRANCH   2   3
TORSDOF 1
