REMARK  1 active torsions:
REMARK  status: ('A' for Active; 'I' for Inactive)
REMARK    1  A    between atoms: C_3  and  C_4 
ROOT
HETATM    1 Br   UNK     0      26.130  30.669  -4.199  0.00  0.00    -0.096 Br
HETATM    2  C   UNK     0      26.835  31.672  -2.687  0.00  0.00     0.096 C 
ENDROOT
BRANCH   2   3
HETATM    3  C   UNK     0      25.740  31.893  -1.675  0.00  0.00     0.096 C 
HETATM    4 Br   UNK     0      24.190  32.672  -2.554  0.00  0.00    -0.096 Br
ENDBRANCH   2   3
TORSDOF 1
