REMARK  1 active torsions:
REMARK  status: ('A' for Active; 'I' for Inactive)
REMARK    1  A    between atoms: C_3  and  C_4 
ROOT
HETATM    1 Br   UNK     0      21.494  35.507   0.484  0.00  0.00    -0.096 Br
HETATM    2  C   UNK     0      20.588  36.590   1.823  0.00  0.00     0.096 C 
ENDROOT
BRANCH   2   3
HETATM    3  C   UNK     0      19.927  35.686   2.834  0.00  0.00     0.096 C 
HETATM    4 Br   UNK     0      18.321  36.547   3.519  0.00  0.00    -0.096 Br
ENDBRANCH   2   3
TORSDOF 1
