REMARK  1 active torsions:
REMARK  status: ('A' for Active; 'I' for Inactive)
REMARK    1  A    between atoms: C_3  and  C_4 
ROOT
HETATM    1 Br   UNK     0      21.136  35.432   2.011  0.00  0.00    -0.096 Br
HETATM    2  C   UNK     0      19.972  36.728   2.878  0.00  0.00     0.096 C 
ENDROOT
BRANCH   2   3
HETATM    3  C   UNK     0      18.855  36.002   3.587  0.00  0.00     0.096 C 
HETATM    4 Br   UNK     0      17.766  37.286   4.564  0.00  0.00    -0.096 Br
ENDBRANCH   2   3
TORSDOF 1
