REMARK  1 active torsions:
REMARK  status: ('A' for Active; 'I' for Inactive)
REMARK    1  A    between atoms: C_3  and  C_4 
ROOT
HETATM    1 Br   UNK     0      26.529  32.595  -2.524  0.00  0.00    -0.096 Br
HETATM    2  C   UNK     0      24.673  32.655  -3.105  0.00  0.00     0.096 C 
ENDROOT
BRANCH   2   3
HETATM    3  C   UNK     0      24.414  31.532  -4.077  0.00  0.00     0.096 C 
HETATM    4 Br   UNK     0      22.806  31.918  -5.102  0.00  0.00    -0.096 Br
ENDBRANCH   2   3
TORSDOF 1
