REMARK  1 active torsions:
REMARK  status: ('A' for Active; 'I' for Inactive)
REMARK    1  A    between atoms: C_3  and  C_4 
ROOT
HETATM    1 Br   UNK     0      23.282  34.166  -1.739  0.00  0.00    -0.096 Br
HETATM    2  C   UNK     0      22.242  35.532  -0.822  0.00  0.00     0.096 C 
ENDROOT
BRANCH   2   3
HETATM    3  C   UNK     0      21.553  34.921   0.371  0.00  0.00     0.096 C 
HETATM    4 Br   UNK     0      21.103  36.319   1.648  0.00  0.00    -0.096 Br
ENDBRANCH   2   3
TORSDOF 1
