REMARK  1 active torsions:
REMARK  status: ('A' for Active; 'I' for Inactive)
REMARK    1  A    between atoms: C_3  and  C_4 
ROOT
HETATM    1 Br   UNK     0      18.114  36.902   4.877  0.00  0.00    -0.096 Br
HETATM    2  C   UNK     0      18.859  36.292   3.186  0.00  0.00     0.096 C 
ENDROOT
BRANCH   2   3
HETATM    3  C   UNK     0      20.363  36.243   3.287  0.00  0.00     0.096 C 
HETATM    4 Br   UNK     0      21.126  36.037   1.509  0.00  0.00    -0.096 Br
ENDBRANCH   2   3
TORSDOF 1
