REMARK  1 active torsions:
REMARK  status: ('A' for Active; 'I' for Inactive)
REMARK    1  A    between atoms: C_3  and  C_4 
ROOT
HETATM    1 Br   UNK     0      18.223  37.263   5.081  0.00  0.00    -0.096 Br
HETATM    2  C   UNK     0      19.075  35.885   4.001  0.00  0.00     0.096 C 
ENDROOT
BRANCH   2   3
HETATM    3  C   UNK     0      19.094  36.319   2.557  0.00  0.00     0.096 C 
HETATM    4 Br   UNK     0      17.329  36.963   2.050  0.00  0.00    -0.096 Br
ENDBRANCH   2   3
TORSDOF 1
