REMARK  1 active torsions:
REMARK  status: ('A' for Active; 'I' for Inactive)
REMARK    1  A    between atoms: C_3  and  C_4 
ROOT
HETATM    1 Br   UNK     0      26.478  32.684  -2.636  0.00  0.00    -0.096 Br
HETATM    2  C   UNK     0      25.109  32.301  -3.965  0.00  0.00     0.096 C 
ENDROOT
BRANCH   2   3
HETATM    3  C   UNK     0      25.609  31.236  -4.908  0.00  0.00     0.096 C 
HETATM    4 Br   UNK     0      24.434  31.136  -6.456  0.00  0.00    -0.096 Br
ENDBRANCH   2   3
TORSDOF 1
