REMARK  1 active torsions:
REMARK  status: ('A' for Active; 'I' for Inactive)
REMARK    1  A    between atoms: C_3  and  C_4 
ROOT
HETATM    1 Br   UNK     0      26.341  32.894  -2.584  0.00  0.00    -0.096 Br
HETATM    2  C   UNK     0      24.589  32.978  -3.428  0.00  0.00     0.096 C 
ENDROOT
BRANCH   2   3
HETATM    3  C   UNK     0      24.440  31.827  -4.391  0.00  0.00     0.096 C 
HETATM    4 Br   UNK     0      22.809  32.056  -5.427  0.00  0.00    -0.096 Br
ENDBRANCH   2   3
TORSDOF 1
