REMARK  1 active torsions:
REMARK  status: ('A' for Active; 'I' for Inactive)
REMARK    1  A    between atoms: C_3  and  C_4 
ROOT
HETATM    1 Br   UNK     0      26.023  33.084  -2.467  0.00  0.00    -0.096 Br
HETATM    2  C   UNK     0      24.440  33.028  -3.597  0.00  0.00     0.096 C 
ENDROOT
BRANCH   2   3
HETATM    3  C   UNK     0      24.320  31.663  -4.227  0.00  0.00     0.096 C 
HETATM    4 Br   UNK     0      22.737  31.608  -5.357  0.00  0.00    -0.096 Br
ENDBRANCH   2   3
TORSDOF 1
