REMARK  1 active torsions:
REMARK  status: ('A' for Active; 'I' for Inactive)
REMARK    1  A    between atoms: C_3  and  C_4 
ROOT
HETATM    1 Br   UNK     0      21.321  35.358   1.344  0.00  0.00    -0.096 Br
HETATM    2  C   UNK     0      20.131  36.514   2.361  0.00  0.00     0.096 C 
ENDROOT
BRANCH   2   3
HETATM    3  C   UNK     0      19.256  35.673   3.256  0.00  0.00     0.096 C 
HETATM    4 Br   UNK     0      17.683  36.696   3.772  0.00  0.00    -0.096 Br
ENDBRANCH   2   3
TORSDOF 1
