REMARK  1 active torsions:
REMARK  status: ('A' for Active; 'I' for Inactive)
REMARK    1  A    between atoms: C_3  and  C_4 
ROOT
HETATM    1 Br   UNK     0      18.159  37.013   4.571  0.00  0.00    -0.096 Br
HETATM    2  C   UNK     0      18.870  36.471   2.842  0.00  0.00     0.096 C 
ENDROOT
BRANCH   2   3
HETATM    3  C   UNK     0      20.366  36.306   2.944  0.00  0.00     0.096 C 
HETATM    4 Br   UNK     0      20.950  34.917   1.712  0.00  0.00    -0.096 Br
ENDBRANCH   2   3
TORSDOF 1
