REMARK  1 active torsions:
REMARK  status: ('A' for Active; 'I' for Inactive)
REMARK    1  A    between atoms: C_3  and  C_4 
ROOT
HETATM    1 Br   UNK     0      21.133  35.707   1.941  0.00  0.00    -0.096 Br
HETATM    2  C   UNK     0      20.156  36.895   3.133  0.00  0.00     0.096 C 
ENDROOT
BRANCH   2   3
HETATM    3  C   UNK     0      19.028  36.136   3.786  0.00  0.00     0.096 C 
HETATM    4 Br   UNK     0      18.517  37.029   5.438  0.00  0.00    -0.096 Br
ENDBRANCH   2   3
TORSDOF 1
