MODEL 6
REMARK VINA RESULT:    -2.756      1.848      1.883
REMARK INTER + INTRA:          -2.917
REMARK INTER:                  -2.917
REMARK INTRA:                   0.000
REMARK UNBOUND:                 0.000
REMARK  1 active torsions:
REMARK  status: ('A' for Active; 'I' for Inactive)
REMARK    1  A    between atoms: C_3  and  C_4 
ROOT
HETATM    1 Br   UNK     0      17.707  36.957   2.310  0.00  0.00    -0.096 Br
HETATM    2  C   UNK     0      19.063  35.714   2.945  0.00  0.00     0.096 C 
ENDROOT
BRANCH   2   3
HETATM    3  C   UNK     0      20.352  36.458   3.189  0.00  0.00     0.096 C 
HETATM    4 Br   UNK     0      21.346  36.599   1.522  0.00  0.00    -0.096 Br
ENDBRANCH   2   3
TORSDOF 1
ENDMDL
