MODEL 8
REMARK VINA RESULT:    -2.492      1.801      1.801
REMARK INTER + INTRA:          -2.638
REMARK INTER:                  -2.638
REMARK INTRA:                   0.000
REMARK UNBOUND:                 0.000
REMARK  1 active torsions:
REMARK  status: ('A' for Active; 'I' for Inactive)
REMARK    1  A    between atoms: C_3  and  C_4 
ROOT
HETATM    1 Br   UNK     0      18.587  36.253   3.778  0.00  0.00    -0.096 Br
HETATM    2  C   UNK     0      20.403  36.948   3.707  0.00  0.00     0.096 C 
ENDROOT
BRANCH   2   3
HETATM    3  C   UNK     0      21.029  36.582   2.384  0.00  0.00     0.096 C 
HETATM    4 Br   UNK     0      20.543  34.756   1.920  0.00  0.00    -0.096 Br
ENDBRANCH   2   3
TORSDOF 1
ENDMDL
