MODEL 7
REMARK VINA RESULT:    -1.853      1.737      1.947
REMARK INTER + INTRA:          -1.961
REMARK INTER:                  -1.961
REMARK INTRA:                   0.000
REMARK UNBOUND:                 0.000
REMARK  1 active torsions:
REMARK  status: ('A' for Active; 'I' for Inactive)
REMARK    1  A    between atoms: C_3  and  C_4 
ROOT
HETATM    1 Br   UNK     0      21.231  36.918   1.488  0.00  0.00    -0.096 Br
HETATM    2  C   UNK     0      20.977  35.000   1.700  0.00  0.00     0.096 C 
ENDROOT
BRANCH   2   3
HETATM    3  C   UNK     0      19.883  34.745   2.706  0.00  0.00     0.096 C 
HETATM    4 Br   UNK     0      18.941  36.408   3.074  0.00  0.00    -0.096 Br
ENDBRANCH   2   3
TORSDOF 1
ENDMDL
