MODEL 8
REMARK VINA RESULT:    -1.554      2.293      2.494
REMARK INTER + INTRA:          -1.645
REMARK INTER:                  -1.645
REMARK INTRA:                   0.000
REMARK UNBOUND:                 0.000
REMARK  1 active torsions:
REMARK  status: ('A' for Active; 'I' for Inactive)
REMARK    1  A    between atoms: C_3  and  C_4 
ROOT
HETATM    1 Br   UNK     0      20.624  34.270   2.082  0.00  0.00    -0.096 Br
HETATM    2  C   UNK     0      19.534  35.470   3.158  0.00  0.00     0.096 C 
ENDROOT
BRANCH   2   3
HETATM    3  C   UNK     0      20.042  36.882   3.006  0.00  0.00     0.096 C 
HETATM    4 Br   UNK     0      21.310  36.960   1.532  0.00  0.00    -0.096 Br
ENDBRANCH   2   3
TORSDOF 1
ENDMDL
