MODEL 8
REMARK VINA RESULT:    -1.554      2.237      2.506
REMARK INTER + INTRA:          -1.645
REMARK INTER:                  -1.645
REMARK INTRA:                   0.000
REMARK UNBOUND:                 0.000
REMARK  1 active torsions:
REMARK  status: ('A' for Active; 'I' for Inactive)
REMARK    1  A    between atoms: C_3  and  C_4 
ROOT
HETATM    1 Br   UNK     0      20.597  34.268   2.086  0.00  0.00    -0.096 Br
HETATM    2  C   UNK     0      19.529  35.480   3.170  0.00  0.00     0.096 C 
ENDROOT
BRANCH   2   3
HETATM    3  C   UNK     0      20.053  36.886   3.018  0.00  0.00     0.096 C 
HETATM    4 Br   UNK     0      21.307  36.952   1.531  0.00  0.00    -0.096 Br
ENDBRANCH   2   3
TORSDOF 1
ENDMDL
