REMARK  1 active torsions:
REMARK  status: ('A' for Active; 'I' for Inactive)
REMARK    1  A    between atoms: C_3  and  C_4 
ROOT
HETATM    1 Br   UNK     0      21.183  35.725   2.172  0.00  0.00    -0.096 Br
HETATM    2  C   UNK     0      19.883  36.952   2.941  0.00  0.00     0.096 C 
ENDROOT
BRANCH   2   3
HETATM    3  C   UNK     0      18.732  36.166   3.518  0.00  0.00     0.096 C 
HETATM    4 Br   UNK     0      17.598  37.352   4.564  0.00  0.00    -0.096 Br
ENDBRANCH   2   3
TORSDOF 1
