REMARK  1 active torsions:
REMARK  status: ('A' for Active; 'I' for Inactive)
REMARK    1  A    between atoms: C_3  and  C_4 
ROOT
HETATM    1 Br   UNK     0      21.567  35.618   2.167  0.00  0.00    -0.096 Br
HETATM    2  C   UNK     0      20.117  36.762   2.779  0.00  0.00     0.096 C 
ENDROOT
BRANCH   2   3
HETATM    3  C   UNK     0      19.045  35.917   3.419  0.00  0.00     0.096 C 
HETATM    4 Br   UNK     0      17.690  37.072   4.204  0.00  0.00    -0.096 Br
ENDBRANCH   2   3
TORSDOF 1
