REMARK  1 active torsions:
REMARK  status: ('A' for Active; 'I' for Inactive)
REMARK    1  A    between atoms: C_3  and  C_4 
ROOT
HETATM    1 Br   UNK     0      24.592  34.044  -2.313  0.00  0.00    -0.096 Br
HETATM    2  C   UNK     0      23.195  35.271  -1.739  0.00  0.00     0.096 C 
ENDROOT
BRANCH   2   3
HETATM    3  C   UNK     0      22.098  34.497  -1.052  0.00  0.00     0.096 C 
HETATM    4 Br   UNK     0      21.610  35.395   0.604  0.00  0.00    -0.096 Br
ENDBRANCH   2   3
TORSDOF 1
