REMARK  1 active torsions:
REMARK  status: ('A' for Active; 'I' for Inactive)
REMARK    1  A    between atoms: C_3  and  C_4 
ROOT
HETATM    1 Br   UNK     0      21.583  35.799   2.328  0.00  0.00    -0.096 Br
HETATM    2  C   UNK     0      19.969  36.885   2.389  0.00  0.00     0.096 C 
ENDROOT
BRANCH   2   3
HETATM    3  C   UNK     0      18.763  35.987   2.496  0.00  0.00     0.096 C 
HETATM    4 Br   UNK     0      17.150  37.073   2.566  0.00  0.00    -0.096 Br
ENDBRANCH   2   3
TORSDOF 1
