MODEL 7
REMARK VINA RESULT:    -1.566      2.160      3.093
REMARK INTER + INTRA:          -1.657
REMARK INTER:                  -1.657
REMARK INTRA:                   0.000
REMARK UNBOUND:                 0.000
REMARK  1 active torsions:
REMARK  status: ('A' for Active; 'I' for Inactive)
REMARK    1  A    between atoms: C_3  and  C_4 
ROOT
HETATM    1 Br   UNK     0      19.934  36.587   3.631  0.00  0.00    -0.096 Br
HETATM    2  C   UNK     0      20.665  37.134   1.912  0.00  0.00     0.096 C 
ENDROOT
BRANCH   2   3
HETATM    3  C   UNK     0      21.153  35.918   1.164  0.00  0.00     0.096 C 
HETATM    4 Br   UNK     0      20.706  34.315   2.171  0.00  0.00    -0.096 Br
ENDBRANCH   2   3
TORSDOF 1
ENDMDL
