MODEL 7
REMARK VINA RESULT:    -1.522      2.374      3.170
REMARK INTER + INTRA:          -1.611
REMARK INTER:                  -1.611
REMARK INTRA:                   0.000
REMARK UNBOUND:                 0.000
REMARK  1 active torsions:
REMARK  status: ('A' for Active; 'I' for Inactive)
REMARK    1  A    between atoms: C_3  and  C_4 
ROOT
HETATM    1 Br   UNK     0      18.833  36.420   2.715  0.00  0.00    -0.096 Br
HETATM    2  C   UNK     0      20.369  37.148   1.768  0.00  0.00     0.096 C 
ENDROOT
BRANCH   2   3
HETATM    3  C   UNK     0      21.212  36.018   1.234  0.00  0.00     0.096 C 
HETATM    4 Br   UNK     0      20.710  34.360   2.120  0.00  0.00    -0.096 Br
ENDBRANCH   2   3
TORSDOF 1
ENDMDL
