MODEL 7
REMARK VINA RESULT:    -2.112      1.952      1.978
REMARK INTER + INTRA:          -2.236
REMARK INTER:                  -2.236
REMARK INTRA:                   0.000
REMARK UNBOUND:                 0.000
REMARK  1 active torsions:
REMARK  status: ('A' for Active; 'I' for Inactive)
REMARK    1  A    between atoms: C_3  and  C_4 
ROOT
HETATM    1 Br   UNK     0      21.548  35.518   1.040  0.00  0.00    -0.096 Br
HETATM    2  C   UNK     0      20.619  36.936   1.996  0.00  0.00     0.096 C 
ENDROOT
BRANCH   2   3
HETATM    3  C   UNK     0      19.703  36.329   3.029  0.00  0.00     0.096 C 
HETATM    4 Br   UNK     0      17.857  36.771   2.598  0.00  0.00    -0.096 Br
ENDBRANCH   2   3
TORSDOF 1
ENDMDL
