REMARK  1 active torsions:
REMARK  status: ('A' for Active; 'I' for Inactive)
REMARK    1  A    between atoms: C_3  and  C_4 
ROOT
HETATM    1 Br   UNK     0      22.512  34.450  -1.075  0.00  0.00    -0.096 Br
HETATM    2  C   UNK     0      23.862  33.944  -2.382  0.00  0.00     0.096 C 
ENDROOT
BRANCH   2   3
HETATM    3  C   UNK     0      24.011  32.444  -2.395  0.00  0.00     0.096 C 
HETATM    4 Br   UNK     0      23.359  31.741  -4.088  0.00  0.00    -0.096 Br
ENDBRANCH   2   3
TORSDOF 1
