REMARK  1 active torsions:
REMARK  status: ('A' for Active; 'I' for Inactive)
REMARK    1  A    between atoms: C_3  and  C_4 
ROOT
HETATM    1 Br   UNK     0      24.434  34.263  -2.125  0.00  0.00    -0.096 Br
HETATM    2  C   UNK     0      22.997  35.410  -1.488  0.00  0.00     0.096 C 
ENDROOT
BRANCH   2   3
HETATM    3  C   UNK     0      21.980  34.578  -0.747  0.00  0.00     0.096 C 
HETATM    4 Br   UNK     0      21.407  35.527   0.852  0.00  0.00    -0.096 Br
ENDBRANCH   2   3
TORSDOF 1
