REMARK  1 active torsions:
REMARK  status: ('A' for Active; 'I' for Inactive)
REMARK    1  A    between atoms: C_3  and  C_4 
ROOT
HETATM    1 Br   UNK     0      25.408  33.726  -2.492  0.00  0.00    -0.096 Br
HETATM    2  C   UNK     0      23.906  34.936  -2.232  0.00  0.00     0.096 C 
ENDROOT
BRANCH   2   3
HETATM    3  C   UNK     0      22.714  34.158  -1.734  0.00  0.00     0.096 C 
HETATM    4 Br   UNK     0      21.870  35.127  -0.274  0.00  0.00    -0.096 Br
ENDBRANCH   2   3
TORSDOF 1
