REMARK  1 active torsions:
REMARK  status: ('A' for Active; 'I' for Inactive)
REMARK    1  A    between atoms: C_3  and  C_4 
ROOT
HETATM    1 Br   UNK     0      21.151  35.670   1.685  0.00  0.00    -0.096 Br
HETATM    2  C   UNK     0      20.239  36.906   2.880  0.00  0.00     0.096 C 
ENDROOT
BRANCH   2   3
HETATM    3  C   UNK     0      19.356  36.131   3.826  0.00  0.00     0.096 C 
HETATM    4 Br   UNK     0      18.906  37.248   5.354  0.00  0.00    -0.096 Br
ENDBRANCH   2   3
TORSDOF 1
