MODEL 6
REMARK VINA RESULT:    -1.558      2.262      2.461
REMARK INTER + INTRA:          -1.649
REMARK INTER:                  -1.649
REMARK INTRA:                   0.000
REMARK UNBOUND:                 0.000
REMARK  1 active torsions:
REMARK  status: ('A' for Active; 'I' for Inactive)
REMARK    1  A    between atoms: C_3  and  C_4 
ROOT
HETATM    1 Br   UNK     0      20.624  34.268   2.089  0.00  0.00    -0.096 Br
HETATM    2  C   UNK     0      19.536  35.473   3.162  0.00  0.00     0.096 C 
ENDROOT
BRANCH   2   3
HETATM    3  C   UNK     0      20.036  36.886   2.993  0.00  0.00     0.096 C 
HETATM    4 Br   UNK     0      21.292  36.957   1.509  0.00  0.00    -0.096 Br
ENDBRANCH   2   3
TORSDOF 1
ENDMDL
