MODEL 5
REMARK VINA RESULT:    -1.498      1.278      1.355
REMARK INTER + INTRA:          -1.586
REMARK INTER:                  -1.586
REMARK INTRA:                   0.000
REMARK UNBOUND:                 0.000
REMARK  1 active torsions:
REMARK  status: ('A' for Active; 'I' for Inactive)
REMARK    1  A    between atoms: C_3  and  C_4 
ROOT
HETATM    1 Br   UNK     0      20.080  36.937   1.158  0.00  0.00    -0.096 Br
HETATM    2  C   UNK     0      20.660  35.910   2.705  0.00  0.00     0.096 C 
ENDROOT
BRANCH   2   3
HETATM    3  C   UNK     0      19.453  35.439   3.477  0.00  0.00     0.096 C 
HETATM    4 Br   UNK     0      18.381  36.974   4.005  0.00  0.00    -0.096 Br
ENDBRANCH   2   3
TORSDOF 1
ENDMDL
