MODEL 7
REMARK VINA RESULT:    -0.396      2.153      2.153
REMARK INTER + INTRA:          -0.419
REMARK INTER:                  -0.419
REMARK INTRA:                   0.000
REMARK UNBOUND:                 0.000
REMARK  1 active torsions:
REMARK  status: ('A' for Active; 'I' for Inactive)
REMARK    1  A    between atoms: C_3  and  C_4 
ROOT
HETATM    1 Br   UNK     0      18.961  36.989   1.505  0.00  0.00    -0.096 Br
HETATM    2  C   UNK     0      19.477  36.640   3.349  0.00  0.00     0.096 C 
ENDROOT
BRANCH   2   3
HETATM    3  C   UNK     0      19.744  35.167   3.526  0.00  0.00     0.096 C 
HETATM    4 Br   UNK     0      20.830  34.522   2.045  0.00  0.00    -0.096 Br
ENDBRANCH   2   3
TORSDOF 1
ENDMDL
