MODEL 8
REMARK VINA RESULT:    -1.687      2.121      2.324
REMARK INTER + INTRA:          -1.786
REMARK INTER:                  -1.786
REMARK INTRA:                   0.000
REMARK UNBOUND:                 0.000
REMARK  1 active torsions:
REMARK  status: ('A' for Active; 'I' for Inactive)
REMARK    1  A    between atoms: C_3  and  C_4 
ROOT
HETATM    1 Br   UNK     0      19.075  36.028   3.359  0.00  0.00    -0.096 Br
HETATM    2  C   UNK     0      20.507  37.026   2.499  0.00  0.00     0.096 C 
ENDROOT
BRANCH   2   3
HETATM    3  C   UNK     0      21.401  36.073   1.745  0.00  0.00     0.096 C 
HETATM    4 Br   UNK     0      20.797  34.247   2.040  0.00  0.00    -0.096 Br
ENDBRANCH   2   3
TORSDOF 1
ENDMDL
