MODEL 6
REMARK VINA RESULT:    -1.577      2.137      2.177
REMARK INTER + INTRA:          -1.669
REMARK INTER:                  -1.669
REMARK INTRA:                   0.000
REMARK UNBOUND:                 0.000
REMARK  1 active torsions:
REMARK  status: ('A' for Active; 'I' for Inactive)
REMARK    1  A    between atoms: C_3  and  C_4 
ROOT
HETATM    1 Br   UNK     0      19.590  36.365   3.686  0.00  0.00    -0.096 Br
HETATM    2  C   UNK     0      20.696  37.130   2.280  0.00  0.00     0.096 C 
ENDROOT
BRANCH   2   3
HETATM    3  C   UNK     0      21.127  36.041   1.330  0.00  0.00     0.096 C 
HETATM    4 Br   UNK     0      20.661  34.306   2.079  0.00  0.00    -0.096 Br
ENDBRANCH   2   3
TORSDOF 1
ENDMDL
