MODEL 7
REMARK VINA RESULT:    -1.465      2.250      2.327
REMARK INTER + INTRA:          -1.551
REMARK INTER:                  -1.551
REMARK INTRA:                   0.000
REMARK UNBOUND:                 0.000
REMARK  1 active torsions:
REMARK  status: ('A' for Active; 'I' for Inactive)
REMARK    1  A    between atoms: C_3  and  C_4 
ROOT
HETATM    1 Br   UNK     0      20.713  34.284   2.179  0.00  0.00    -0.096 Br
HETATM    2  C   UNK     0      19.468  35.526   3.013  0.00  0.00     0.096 C 
ENDROOT
BRANCH   2   3
HETATM    3  C   UNK     0      19.797  36.933   2.583  0.00  0.00     0.096 C 
HETATM    4 Br   UNK     0      21.326  36.902   1.379  0.00  0.00    -0.096 Br
ENDBRANCH   2   3
TORSDOF 1
ENDMDL
