REMARK  1 active torsions:
REMARK  status: ('A' for Active; 'I' for Inactive)
REMARK    1  A    between atoms: C_3  and  C_4 
ROOT
HETATM    1 Br   UNK     0      21.992  34.845  -0.407  0.00  0.00    -0.096 Br
HETATM    2  C   UNK     0      23.180  34.595  -1.929  0.00  0.00     0.096 C 
ENDROOT
BRANCH   2   3
HETATM    3  C   UNK     0      23.681  33.173  -1.946  0.00  0.00     0.096 C 
HETATM    4 Br   UNK     0      23.049  32.282  -3.556  0.00  0.00    -0.096 Br
ENDBRANCH   2   3
TORSDOF 1
