MODEL 6
REMARK VINA RESULT:    -1.640      1.505      3.147
REMARK INTER + INTRA:          -1.736
REMARK INTER:                  -1.736
REMARK INTRA:                   0.000
REMARK UNBOUND:                 0.000
REMARK  1 active torsions:
REMARK  status: ('A' for Active; 'I' for Inactive)
REMARK    1  A    between atoms: C_3  and  C_4 
ROOT
HETATM    1 Br   UNK     0      20.037  36.931   3.420  0.00  0.00    -0.096 Br
HETATM    2  C   UNK     0      19.530  35.215   2.654  0.00  0.00     0.096 C 
ENDROOT
BRANCH   2   3
HETATM    3  C   UNK     0      20.728  34.588   1.988  0.00  0.00     0.096 C 
HETATM    4 Br   UNK     0      21.609  35.908   0.861  0.00  0.00    -0.096 Br
ENDBRANCH   2   3
TORSDOF 1
ENDMDL
