MODEL 6
REMARK VINA RESULT:    -2.025      1.647      2.929
REMARK INTER + INTRA:          -2.144
REMARK INTER:                  -2.144
REMARK INTRA:                   0.000
REMARK UNBOUND:                 0.000
REMARK  1 active torsions:
REMARK  status: ('A' for Active; 'I' for Inactive)
REMARK    1  A    between atoms: C_3  and  C_4 
ROOT
HETATM    1 Br   UNK     0      18.781  36.953   2.684  0.00  0.00    -0.096 Br
HETATM    2  C   UNK     0      19.622  35.226   2.996  0.00  0.00     0.096 C 
ENDROOT
BRANCH   2   3
HETATM    3  C   UNK     0      20.696  34.996   1.963  0.00  0.00     0.096 C 
HETATM    4 Br   UNK     0      21.414  36.709   1.382  0.00  0.00    -0.096 Br
ENDBRANCH   2   3
TORSDOF 1
ENDMDL
