MODEL 8
REMARK VINA RESULT:    -0.804      2.435      4.129
REMARK INTER + INTRA:          -0.852
REMARK INTER:                  -0.852
REMARK INTRA:                   0.000
REMARK UNBOUND:                 0.000
REMARK  1 active torsions:
REMARK  status: ('A' for Active; 'I' for Inactive)
REMARK    1  A    between atoms: C_3  and  C_4 
ROOT
HETATM    1 Br   UNK     0      19.714  35.858   3.056  0.00  0.00    -0.096 Br
HETATM    2  C   UNK     0      21.009  36.340   1.686  0.00  0.00     0.096 C 
ENDROOT
BRANCH   2   3
HETATM    3  C   UNK     0      21.301  35.137   0.824  0.00  0.00     0.096 C 
HETATM    4 Br   UNK     0      22.248  35.701  -0.779  0.00  0.00    -0.096 Br
ENDBRANCH   2   3
TORSDOF 1
ENDMDL
