MODEL 1
REMARK VINA RESULT:    -2.861      0.000      0.000
REMARK INTER + INTRA:          -3.028
REMARK INTER:                  -3.028
REMARK INTRA:                   0.000
REMARK UNBOUND:                 0.000
REMARK  1 active torsions:
REMARK  status: ('A' for Active; 'I' for Inactive)
REMARK    1  A    between atoms: C_3  and  C_4 
ROOT
HETATM    1 Br   UNK     0      17.401  37.053   3.976  0.00  0.00    -0.096 Br
HETATM    2  C   UNK     0      19.264  36.492   4.033  0.00  0.00     0.096 C 
ENDROOT
BRANCH   2   3
HETATM    3  C   UNK     0      19.578  35.667   2.810  0.00  0.00     0.096 C 
HETATM    4 Br   UNK     0      21.075  36.465   1.857  0.00  0.00    -0.096 Br
ENDBRANCH   2   3
TORSDOF 1
ENDMDL
