MODEL 1
REMARK VINA RESULT:    -2.136      0.000      0.000
REMARK INTER + INTRA:          -2.260
REMARK INTER:                  -2.260
REMARK INTRA:                   0.000
REMARK UNBOUND:                 0.000
REMARK  1 active torsions:
REMARK  status: ('A' for Active; 'I' for Inactive)
REMARK    1  A    between atoms: C_3  and  C_4 
ROOT
HETATM    1 Br   UNK     0      18.064  37.014   2.502  0.00  0.00    -0.096 Br
HETATM    2  C   UNK     0      19.403  35.886   3.352  0.00  0.00     0.096 C 
ENDROOT
BRANCH   2   3
HETATM    3  C   UNK     0      20.268  35.249   2.293  0.00  0.00     0.096 C 
HETATM    4 Br   UNK     0      21.303  36.625   1.387  0.00  0.00    -0.096 Br
ENDBRANCH   2   3
TORSDOF 1
ENDMDL
