MODEL 1
REMARK VINA RESULT:    -2.829      0.000      0.000
REMARK INTER + INTRA:          -2.994
REMARK INTER:                  -2.994
REMARK INTRA:                   0.000
REMARK UNBOUND:                 0.000
REMARK  1 active torsions:
REMARK  status: ('A' for Active; 'I' for Inactive)
REMARK    1  A    between atoms: C_3  and  C_4 
ROOT
HETATM    1 Br   UNK     0      19.299  37.029   5.237  0.00  0.00    -0.096 Br
HETATM    2  C   UNK     0      17.734  36.957   4.083  0.00  0.00     0.096 C 
ENDROOT
BRANCH   2   3
HETATM    3  C   UNK     0      18.160  36.595   2.682  0.00  0.00     0.096 C 
HETATM    4 Br   UNK     0      20.036  36.078   2.687  0.00  0.00    -0.096 Br
ENDBRANCH   2   3
TORSDOF 1
ENDMDL
