MODEL 1
REMARK VINA RESULT:    -2.625      0.000      0.000
REMARK INTER + INTRA:          -2.779
REMARK INTER:                  -2.779
REMARK INTRA:                   0.000
REMARK UNBOUND:                 0.000
REMARK  1 active torsions:
REMARK  status: ('A' for Active; 'I' for Inactive)
REMARK    1  A    between atoms: C_3  and  C_4 
ROOT
HETATM    1 Br   UNK     0      17.680  36.872   3.853  0.00  0.00    -0.096 Br
HETATM    2  C   UNK     0      19.576  36.433   3.858  0.00  0.00     0.096 C 
ENDROOT
BRANCH   2   3
HETATM    3  C   UNK     0      19.881  35.512   2.703  0.00  0.00     0.096 C 
HETATM    4 Br   UNK     0      21.295  36.286   1.613  0.00  0.00    -0.096 Br
ENDBRANCH   2   3
TORSDOF 1
ENDMDL
