MODEL 1
REMARK VINA RESULT:    -1.803      0.000      0.000
REMARK INTER + INTRA:          -1.908
REMARK INTER:                  -1.908
REMARK INTRA:                   0.000
REMARK UNBOUND:                 0.000
REMARK  1 active torsions:
REMARK  status: ('A' for Active; 'I' for Inactive)
REMARK    1  A    between atoms: C_3  and  C_4 
ROOT
HETATM    1 Br   UNK     0      23.139  31.925  -4.149  0.00  0.00    -0.096 Br
HETATM    2  C   UNK     0      24.024  32.829  -2.670  0.00  0.00     0.096 C 
ENDROOT
BRANCH   2   3
HETATM    3  C   UNK     0      25.448  32.346  -2.565  0.00  0.00     0.096 C 
HETATM    4 Br   UNK     0      26.658  33.774  -3.097  0.00  0.00    -0.096 Br
ENDBRANCH   2   3
TORSDOF 1
ENDMDL
