MODEL 1
REMARK VINA RESULT:    -2.837      0.000      0.000
REMARK INTER + INTRA:          -3.003
REMARK INTER:                  -3.003
REMARK INTRA:                   0.000
REMARK UNBOUND:                 0.000
REMARK  1 active torsions:
REMARK  status: ('A' for Active; 'I' for Inactive)
REMARK    1  A    between atoms: C_3  and  C_4 
ROOT
HETATM    1 Br   UNK     0      17.515  37.073   4.021  0.00  0.00    -0.096 Br
HETATM    2  C   UNK     0      19.360  36.454   3.995  0.00  0.00     0.096 C 
ENDROOT
BRANCH   2   3
HETATM    3  C   UNK     0      19.611  35.676   2.728  0.00  0.00     0.096 C 
HETATM    4 Br   UNK     0      21.134  36.440   1.789  0.00  0.00    -0.096 Br
ENDBRANCH   2   3
TORSDOF 1
ENDMDL
