MODEL 1
REMARK VINA RESULT:    -2.865      0.000      0.000
REMARK INTER + INTRA:          -3.033
REMARK INTER:                  -3.033
REMARK INTRA:                   0.000
REMARK UNBOUND:                 0.000
REMARK  1 active torsions:
REMARK  status: ('A' for Active; 'I' for Inactive)
REMARK    1  A    between atoms: C_3  and  C_4 
ROOT
HETATM    1 Br   UNK     0      17.377  37.011   3.872  0.00  0.00    -0.096 Br
HETATM    2  C   UNK     0      19.240  36.463   3.989  0.00  0.00     0.096 C 
ENDROOT
BRANCH   2   3
HETATM    3  C   UNK     0      19.598  35.638   2.778  0.00  0.00     0.096 C 
HETATM    4 Br   UNK     0      21.096  36.464   1.850  0.00  0.00    -0.096 Br
ENDBRANCH   2   3
TORSDOF 1
ENDMDL
