MODEL 1
REMARK VINA RESULT:    -2.362      0.000      0.000
REMARK INTER + INTRA:          -2.500
REMARK INTER:                  -2.500
REMARK INTRA:                   0.000
REMARK UNBOUND:                 0.000
REMARK  1 active torsions:
REMARK  status: ('A' for Active; 'I' for Inactive)
REMARK    1  A    between atoms: C_3  and  C_4 
ROOT
HETATM    1 Br   UNK     0      17.850  36.776   2.010  0.00  0.00    -0.096 Br
HETATM    2  C   UNK     0      18.606  36.342   3.750  0.00  0.00     0.096 C 
ENDROOT
BRANCH   2   3
HETATM    3  C   UNK     0      20.088  36.621   3.738  0.00  0.00     0.096 C 
HETATM    4 Br   UNK     0      20.826  36.135   2.004  0.00  0.00    -0.096 Br
ENDBRANCH   2   3
TORSDOF 1
ENDMDL
