MODEL 1
REMARK VINA RESULT:    -1.902      0.000      0.000
REMARK INTER + INTRA:          -2.014
REMARK INTER:                  -2.014
REMARK INTRA:                   0.000
REMARK UNBOUND:                 0.000
REMARK  1 active torsions:
REMARK  status: ('A' for Active; 'I' for Inactive)
REMARK    1  A    between atoms: C_3  and  C_4 
ROOT
HETATM    1 Br   UNK     0      21.212  36.582   1.264  0.00  0.00    -0.096 Br
HETATM    2  C   UNK     0      20.424  35.201   2.387  0.00  0.00     0.096 C 
ENDROOT
BRANCH   2   3
HETATM    3  C   UNK     0      19.455  35.833   3.355  0.00  0.00     0.096 C 
HETATM    4 Br   UNK     0      18.203  36.957   2.378  0.00  0.00    -0.096 Br
ENDBRANCH   2   3
TORSDOF 1
ENDMDL
