MODEL 1
REMARK VINA RESULT:    -1.802      0.000      0.000
REMARK INTER + INTRA:          -1.908
REMARK INTER:                  -1.908
REMARK INTRA:                   0.000
REMARK UNBOUND:                 0.000
REMARK  1 active torsions:
REMARK  status: ('A' for Active; 'I' for Inactive)
REMARK    1  A    between atoms: C_3  and  C_4 
ROOT
HETATM    1 Br   UNK     0      26.651  33.766  -3.108  0.00  0.00    -0.096 Br
HETATM    2  C   UNK     0      25.446  32.341  -2.557  0.00  0.00     0.096 C 
ENDROOT
BRANCH   2   3
HETATM    3  C   UNK     0      24.020  32.823  -2.654  0.00  0.00     0.096 C 
HETATM    4 Br   UNK     0      23.133  31.929  -4.138  0.00  0.00    -0.096 Br
ENDBRANCH   2   3
TORSDOF 1
ENDMDL
