MODEL 1
REMARK VINA RESULT:    -1.738      0.000      0.000
REMARK INTER + INTRA:          -1.840
REMARK INTER:                  -1.840
REMARK INTRA:                   0.000
REMARK UNBOUND:                 0.000
REMARK  1 active torsions:
REMARK  status: ('A' for Active; 'I' for Inactive)
REMARK    1  A    between atoms: C_3  and  C_4 
ROOT
HETATM    1 Br   UNK     0      23.190  32.048  -4.085  0.00  0.00    -0.096 Br
HETATM    2  C   UNK     0      24.364  32.762  -2.707  0.00  0.00     0.096 C 
ENDROOT
BRANCH   2   3
HETATM    3  C   UNK     0      25.779  32.311  -2.970  0.00  0.00     0.096 C 
HETATM    4 Br   UNK     0      26.949  33.864  -3.054  0.00  0.00    -0.096 Br
ENDBRANCH   2   3
TORSDOF 1
ENDMDL
