MODEL 1
REMARK VINA RESULT:    -1.796      0.000      0.000
REMARK INTER + INTRA:          -1.901
REMARK INTER:                  -1.901
REMARK INTRA:                   0.000
REMARK UNBOUND:                 0.000
REMARK  1 active torsions:
REMARK  status: ('A' for Active; 'I' for Inactive)
REMARK    1  A    between atoms: C_3  and  C_4 
ROOT
HETATM    1 Br   UNK     0      26.750  33.832  -3.086  0.00  0.00    -0.096 Br
HETATM    2  C   UNK     0      25.539  32.375  -2.642  0.00  0.00     0.096 C 
ENDROOT
BRANCH   2   3
HETATM    3  C   UNK     0      24.117  32.876  -2.675  0.00  0.00     0.096 C 
HETATM    4 Br   UNK     0      23.138  31.956  -4.083  0.00  0.00    -0.096 Br
ENDBRANCH   2   3
TORSDOF 1
ENDMDL
