MODEL 1
REMARK VINA RESULT:    -1.793      0.000      0.000
REMARK INTER + INTRA:          -1.898
REMARK INTER:                  -1.898
REMARK INTRA:                   0.000
REMARK UNBOUND:                 0.000
REMARK  1 active torsions:
REMARK  status: ('A' for Active; 'I' for Inactive)
REMARK    1  A    between atoms: C_3  and  C_4 
ROOT
HETATM    1 Br   UNK     0      23.226  31.905  -4.202  0.00  0.00    -0.096 Br
HETATM    2  C   UNK     0      24.004  32.790  -2.653  0.00  0.00     0.096 C 
ENDROOT
BRANCH   2   3
HETATM    3  C   UNK     0      25.432  32.338  -2.481  0.00  0.00     0.096 C 
HETATM    4 Br   UNK     0      26.634  33.726  -3.128  0.00  0.00    -0.096 Br
ENDBRANCH   2   3
TORSDOF 1
ENDMDL
