MODEL 3
REMARK VINA RESULT:    -3.290      0.116      2.905
REMARK INTER + INTRA:          -3.482
REMARK INTER:                  -3.482
REMARK INTRA:                   0.000
REMARK UNBOUND:                 0.000
REMARK  1 active torsions:
REMARK  status: ('A' for Active; 'I' for Inactive)
REMARK    1  A    between atoms: C_3  and  C_4 
ROOT
HETATM    1 Br   UNK     0      21.108  36.472   1.884  0.00  0.00    -0.096 Br
HETATM    2  C   UNK     0      19.744  35.309   2.643  0.00  0.00     0.096 C 
ENDROOT
BRANCH   2   3
HETATM    3  C   UNK     0      18.942  36.076   3.665  0.00  0.00     0.096 C 
HETATM    4 Br   UNK     0      17.424  36.925   2.793  0.00  0.00    -0.096 Br
ENDBRANCH   2   3
TORSDOF 1
ENDMDL
