REMARK  1 active torsions:
REMARK  status: ('A' for Active; 'I' for Inactive)
REMARK    1  A    between atoms: C_3  and  C_4 
ROOT
HETATM    1 Br   UNK     0      21.478  35.689   2.061  0.00  0.00    -0.096 Br
HETATM    2  C   UNK     0      20.060  36.808   2.786  0.00  0.00     0.096 C 
ENDROOT
BRANCH   2   3
HETATM    3  C   UNK     0      18.968  35.934   3.349  0.00  0.00     0.096 C 
HETATM    4 Br   UNK     0      17.701  37.034   4.335  0.00  0.00    -0.096 Br
ENDBRANCH   2   3
TORSDOF 1
