MODEL 8
REMARK VINA RESULT:    -1.547      2.327      2.528
REMARK INTER + INTRA:          -1.638
REMARK INTER:                  -1.638
REMARK INTRA:                   0.000
REMARK UNBOUND:                 0.000
REMARK  1 active torsions:
REMARK  status: ('A' for Active; 'I' for Inactive)
REMARK    1  A    between atoms: C_3  and  C_4 
ROOT
HETATM    1 Br   UNK     0      19.854  36.632   3.377  0.00  0.00    -0.096 Br
HETATM    2  C   UNK     0      20.978  37.018   1.836  0.00  0.00     0.096 C 
ENDROOT
BRANCH   2   3
HETATM    3  C   UNK     0      21.246  35.742   1.078  0.00  0.00     0.096 C 
HETATM    4 Br   UNK     0      20.623  34.223   2.123  0.00  0.00    -0.096 Br
ENDBRANCH   2   3
TORSDOF 1
ENDMDL
