MODEL 3
REMARK VINA RESULT:    -3.298      1.761      2.796
REMARK INTER + INTRA:          -3.491
REMARK INTER:                  -3.491
REMARK INTRA:                   0.000
REMARK UNBOUND:                 0.000
REMARK  1 active torsions:
REMARK  status: ('A' for Active; 'I' for Inactive)
REMARK    1  A    between atoms: C_3  and  C_4 
ROOT
HETATM    1 Br   UNK     0      21.089  36.491   1.813  0.00  0.00    -0.096 Br
HETATM    2  C   UNK     0      19.735  35.367   2.643  0.00  0.00     0.096 C 
ENDROOT
BRANCH   2   3
HETATM    3  C   UNK     0      18.802  36.225   3.461  0.00  0.00     0.096 C 
HETATM    4 Br   UNK     0      17.411  36.949   2.309  0.00  0.00    -0.096 Br
ENDBRANCH   2   3
TORSDOF 1
ENDMDL
