MODEL 1
REMARK VINA RESULT:    -2.010      0.000      0.000
REMARK INTER + INTRA:          -2.128
REMARK INTER:                  -2.128
REMARK INTRA:                   0.000
REMARK UNBOUND:                 0.000
REMARK  1 active torsions:
REMARK  status: ('A' for Active; 'I' for Inactive)
REMARK    1  A    between atoms: C_3  and  C_4 
ROOT
HETATM    1 Br   UNK     0      26.097  31.492  -1.169  0.00  0.00    -0.096 Br
HETATM    2  C   UNK     0      26.890  32.893  -2.262  0.00  0.00     0.096 C 
ENDROOT
BRANCH   2   3
HETATM    3  C   UNK     0      25.833  33.491  -3.157  0.00  0.00     0.096 C 
HETATM    4 Br   UNK     0      24.075  32.892  -2.573  0.00  0.00    -0.096 Br
ENDBRANCH   2   3
TORSDOF 1
ENDMDL
