MODEL 1
REMARK VINA RESULT:    -3.339      0.000      0.000
REMARK INTER + INTRA:          -3.534
REMARK INTER:                  -3.534
REMARK INTRA:                   0.000
REMARK UNBOUND:                 0.000
REMARK  1 active torsions:
REMARK  status: ('A' for Active; 'I' for Inactive)
REMARK    1  A    between atoms: C_3  and  C_4 
ROOT
HETATM    1 Br   UNK     0      21.080  36.452   1.905  0.00  0.00    -0.096 Br
HETATM    2  C   UNK     0      19.658  35.392   2.708  0.00  0.00     0.096 C 
ENDROOT
BRANCH   2   3
HETATM    3  C   UNK     0      18.732  36.297   3.481  0.00  0.00     0.096 C 
HETATM    4 Br   UNK     0      19.678  37.040   5.011  0.00  0.00    -0.096 Br
ENDBRANCH   2   3
TORSDOF 1
ENDMDL
