MODEL 1
REMARK VINA RESULT:    -0.530      0.000      0.000
REMARK INTER + INTRA:          -0.561
REMARK INTER:                  -0.561
REMARK INTRA:                   0.000
REMARK UNBOUND:                 0.000
REMARK  1 active torsions:
REMARK  status: ('A' for Active; 'I' for Inactive)
REMARK    1  A    between atoms: C_3  and  C_4 
ROOT
HETATM    1 Br   UNK     0      17.850  37.068   2.300  0.00  0.00    -0.096 Br
HETATM    2  C   UNK     0      18.970  35.976   3.458  0.00  0.00     0.096 C 
ENDROOT
BRANCH   2   3
HETATM    3  C   UNK     0      19.969  35.217   2.621  0.00  0.00     0.096 C 
HETATM    4 Br   UNK     0      21.214  36.469   1.804  0.00  0.00    -0.096 Br
ENDBRANCH   2   3
TORSDOF 1
ENDMDL
