MODEL 1
REMARK VINA RESULT:    -1.968      0.000      0.000
REMARK INTER + INTRA:          -2.083
REMARK INTER:                  -2.083
REMARK INTRA:                   0.000
REMARK UNBOUND:                 0.000
REMARK  1 active torsions:
REMARK  status: ('A' for Active; 'I' for Inactive)
REMARK    1  A    between atoms: C_3  and  C_4 
ROOT
HETATM    1 Br   UNK     0      26.127  31.484  -1.172  0.00  0.00    -0.096 Br
HETATM    2  C   UNK     0      26.774  32.919  -2.315  0.00  0.00     0.096 C 
ENDROOT
BRANCH   2   3
HETATM    3  C   UNK     0      25.724  33.255  -3.343  0.00  0.00     0.096 C 
HETATM    4 Br   UNK     0      23.956  32.974  -2.581  0.00  0.00    -0.096 Br
ENDBRANCH   2   3
TORSDOF 1
ENDMDL
