MODEL 1
REMARK VINA RESULT:    -3.297      0.000      0.000
REMARK INTER + INTRA:          -3.490
REMARK INTER:                  -3.490
REMARK INTRA:                   0.000
REMARK UNBOUND:                 0.000
REMARK  1 active torsions:
REMARK  status: ('A' for Active; 'I' for Inactive)
REMARK    1  A    between atoms: C_3  and  C_4 
ROOT
HETATM    1 Br   UNK     0      21.035  36.506   1.788  0.00  0.00    -0.096 Br
HETATM    2  C   UNK     0      19.759  35.383   2.735  0.00  0.00     0.096 C 
ENDROOT
BRANCH   2   3
HETATM    3  C   UNK     0      18.811  36.253   3.521  0.00  0.00     0.096 C 
HETATM    4 Br   UNK     0      17.434  36.948   2.334  0.00  0.00    -0.096 Br
ENDBRANCH   2   3
TORSDOF 1
ENDMDL
