MODEL 1
REMARK VINA RESULT:    -2.015      0.000      0.000
REMARK INTER + INTRA:          -2.133
REMARK INTER:                  -2.133
REMARK INTRA:                   0.000
REMARK UNBOUND:                 0.000
REMARK  1 active torsions:
REMARK  status: ('A' for Active; 'I' for Inactive)
REMARK    1  A    between atoms: C_3  and  C_4 
ROOT
HETATM    1 Br   UNK     0      26.093  31.545  -1.179  0.00  0.00    -0.096 Br
HETATM    2  C   UNK     0      26.931  32.871  -2.331  0.00  0.00     0.096 C 
ENDROOT
BRANCH   2   3
HETATM    3  C   UNK     0      25.866  33.630  -3.081  0.00  0.00     0.096 C 
HETATM    4 Br   UNK     0      24.117  32.892  -2.649  0.00  0.00    -0.096 Br
ENDBRANCH   2   3
TORSDOF 1
ENDMDL
