MODEL 1
REMARK VINA RESULT:    -2.102      0.000      0.000
REMARK INTER + INTRA:          -2.225
REMARK INTER:                  -2.225
REMARK INTRA:                   0.000
REMARK UNBOUND:                 0.000
REMARK  1 active torsions:
REMARK  status: ('A' for Active; 'I' for Inactive)
REMARK    1  A    between atoms: C_3  and  C_4 
ROOT
HETATM    1 Br   UNK     0      21.207  36.742   1.130  0.00  0.00    -0.096 Br
HETATM    2  C   UNK     0      20.741  35.011   1.888  0.00  0.00     0.096 C 
ENDROOT
BRANCH   2   3
HETATM    3  C   UNK     0      19.732  35.201   2.993  0.00  0.00     0.096 C 
HETATM    4 Br   UNK     0      18.634  36.761   2.607  0.00  0.00    -0.096 Br
ENDBRANCH   2   3
TORSDOF 1
ENDMDL
