MODEL 1
REMARK VINA RESULT:    -2.304      0.000      0.000
REMARK INTER + INTRA:          -2.439
REMARK INTER:                  -2.439
REMARK INTRA:                   0.000
REMARK UNBOUND:                 0.000
REMARK  1 active torsions:
REMARK  status: ('A' for Active; 'I' for Inactive)
REMARK    1  A    between atoms: C_3  and  C_4 
ROOT
HETATM    1 Br   UNK     0      21.356  36.626   1.254  0.00  0.00    -0.096 Br
HETATM    2  C   UNK     0      20.619  35.008   2.045  0.00  0.00     0.096 C 
ENDROOT
BRANCH   2   3
HETATM    3  C   UNK     0      19.596  35.380   3.089  0.00  0.00     0.096 C 
HETATM    4 Br   UNK     0      18.574  36.919   2.476  0.00  0.00    -0.096 Br
ENDBRANCH   2   3
TORSDOF 1
ENDMDL
