MODEL 1
REMARK VINA RESULT:    -1.986      0.000      0.000
REMARK INTER + INTRA:          -2.102
REMARK INTER:                  -2.102
REMARK INTRA:                   0.000
REMARK UNBOUND:                 0.000
REMARK  1 active torsions:
REMARK  status: ('A' for Active; 'I' for Inactive)
REMARK    1  A    between atoms: C_3  and  C_4 
ROOT
HETATM    1 Br   UNK     0      23.308  31.948  -4.324  0.00  0.00    -0.096 Br
HETATM    2  C   UNK     0      23.878  32.784  -2.662  0.00  0.00     0.096 C 
ENDROOT
BRANCH   2   3
HETATM    3  C   UNK     0      25.318  32.429  -2.389  0.00  0.00     0.096 C 
HETATM    4 Br   UNK     0      26.476  33.819  -3.107  0.00  0.00    -0.096 Br
ENDBRANCH   2   3
TORSDOF 1
ENDMDL
