MODEL 7
REMARK VINA RESULT:    -0.638      2.061      2.628
REMARK INTER + INTRA:          -0.676
REMARK INTER:                  -0.676
REMARK INTRA:                   0.000
REMARK UNBOUND:                 0.000
REMARK  1 active torsions:
REMARK  status: ('A' for Active; 'I' for Inactive)
REMARK    1  A    between atoms: C_3  and  C_4 
ROOT
HETATM    1 Br   UNK     0      19.269  35.880   3.428  0.00  0.00    -0.096 Br
HETATM    2  C   UNK     0      21.145  35.870   2.914  0.00  0.00     0.096 C 
ENDROOT
BRANCH   2   3
HETATM    3  C   UNK     0      21.258  36.032   1.418  0.00  0.00     0.096 C 
HETATM    4 Br   UNK     0      19.824  37.185   0.782  0.00  0.00    -0.096 Br
ENDBRANCH   2   3
TORSDOF 1
ENDMDL
