REMARK  1 active torsions:
REMARK  status: ('A' for Active; 'I' for Inactive)
REMARK    1  A    between atoms: C_3  and  C_4 
ROOT
HETATM    1 Br   UNK     0      21.394  35.752   2.218  0.00  0.00    -0.096 Br
HETATM    2  C   UNK     0      19.897  36.899   2.697  0.00  0.00     0.096 C 
ENDROOT
BRANCH   2   3
HETATM    3  C   UNK     0      18.711  36.047   3.075  0.00  0.00     0.096 C 
HETATM    4 Br   UNK     0      17.297  37.181   3.783  0.00  0.00    -0.096 Br
ENDBRANCH   2   3
TORSDOF 1
