REMARK  1 active torsions:
REMARK  status: ('A' for Active; 'I' for Inactive)
REMARK    1  A    between atoms: C_3  and  C_4 
ROOT
HETATM    1 Br   UNK     0      20.978  35.609   2.083  0.00  0.00    -0.096 Br
HETATM    2  C   UNK     0      19.753  36.857   2.937  0.00  0.00     0.096 C 
ENDROOT
BRANCH   2   3
HETATM    3  C   UNK     0      18.675  36.087   3.660  0.00  0.00     0.096 C 
HETATM    4 Br   UNK     0      17.588  37.319   4.704  0.00  0.00    -0.096 Br
ENDBRANCH   2   3
TORSDOF 1
