REMARK  1 active torsions:
REMARK  status: ('A' for Active; 'I' for Inactive)
REMARK    1  A    between atoms: C_3  and  C_4 
ROOT
HETATM    1 Br   UNK     0      21.255  35.672   2.141  0.00  0.00    -0.096 Br
HETATM    2  C   UNK     0      19.947  36.871   2.940  0.00  0.00     0.096 C 
ENDROOT
BRANCH   2   3
HETATM    3  C   UNK     0      18.843  36.063   3.574  0.00  0.00     0.096 C 
HETATM    4 Br   UNK     0      17.639  37.250   4.536  0.00  0.00    -0.096 Br
ENDBRANCH   2   3
TORSDOF 1
