MODEL 1
REMARK VINA RESULT:    -3.365      0.000      0.000
REMARK INTER + INTRA:          -3.561
REMARK INTER:                  -3.561
REMARK INTRA:                   0.000
REMARK UNBOUND:                 0.000
REMARK  1 active torsions:
REMARK  status: ('A' for Active; 'I' for Inactive)
REMARK    1  A    between atoms: C_3  and  C_4 
ROOT
HETATM    1 Br   UNK     0      19.404  37.050   5.171  0.00  0.00    -0.096 Br
HETATM    2  C   UNK     0      18.659  36.420   3.488  0.00  0.00     0.096 C 
ENDROOT
BRANCH   2   3
HETATM    3  C   UNK     0      19.637  35.484   2.824  0.00  0.00     0.096 C 
HETATM    4 Br   UNK     0      20.974  36.519   1.861  0.00  0.00    -0.096 Br
ENDBRANCH   2   3
TORSDOF 1
ENDMDL
