MODEL 8
REMARK VINA RESULT:    -0.646      2.474      2.710
REMARK INTER + INTRA:          -0.684
REMARK INTER:                  -0.684
REMARK INTRA:                   0.000
REMARK UNBOUND:                 0.000
REMARK  1 active torsions:
REMARK  status: ('A' for Active; 'I' for Inactive)
REMARK    1  A    between atoms: C_3  and  C_4 
ROOT
HETATM    1 Br   UNK     0      20.489  34.323   2.455  0.00  0.00    -0.096 Br
HETATM    2  C   UNK     0      19.953  36.194   2.453  0.00  0.00     0.096 C 
ENDROOT
BRANCH   2   3
HETATM    3  C   UNK     0      20.842  36.970   1.514  0.00  0.00     0.096 C 
HETATM    4 Br   UNK     0      21.670  35.748   0.246  0.00  0.00    -0.096 Br
ENDBRANCH   2   3
TORSDOF 1
ENDMDL
