MODEL 7
REMARK VINA RESULT:    -1.571      1.968      3.136
REMARK INTER + INTRA:          -1.662
REMARK INTER:                  -1.662
REMARK INTRA:                   0.000
REMARK UNBOUND:                 0.000
REMARK  1 active torsions:
REMARK  status: ('A' for Active; 'I' for Inactive)
REMARK    1  A    between atoms: C_3  and  C_4 
ROOT
HETATM    1 Br   UNK     0      21.037  34.570   1.539  0.00  0.00    -0.096 Br
HETATM    2  C   UNK     0      21.348  36.468   1.838  0.00  0.00     0.096 C 
ENDROOT
BRANCH   2   3
HETATM    3  C   UNK     0      20.089  37.105   2.372  0.00  0.00     0.096 C 
HETATM    4 Br   UNK     0      19.195  35.866   3.577  0.00  0.00    -0.096 Br
ENDBRANCH   2   3
TORSDOF 1
ENDMDL
