MODEL 1
REMARK VINA RESULT:    -3.367      0.000      0.000
REMARK INTER + INTRA:          -3.564
REMARK INTER:                  -3.564
REMARK INTRA:                   0.000
REMARK UNBOUND:                 0.000
REMARK  1 active torsions:
REMARK  status: ('A' for Active; 'I' for Inactive)
REMARK    1  A    between atoms: C_3  and  C_4 
ROOT
HETATM    1 Br   UNK     0      19.661  37.080   5.044  0.00  0.00    -0.096 Br
HETATM    2  C   UNK     0      18.713  36.300   3.533  0.00  0.00     0.096 C 
ENDROOT
BRANCH   2   3
HETATM    3  C   UNK     0      19.658  35.430   2.743  0.00  0.00     0.096 C 
HETATM    4 Br   UNK     0      20.972  36.548   1.845  0.00  0.00    -0.096 Br
ENDBRANCH   2   3
TORSDOF 1
ENDMDL
