REMARK  1 active torsions:
REMARK  status: ('A' for Active; 'I' for Inactive)
REMARK    1  A    between atoms: C_3  and  C_4 
ROOT
HETATM    1 Br   UNK     0      26.239  32.440  -2.409  0.00  0.00    -0.096 Br
HETATM    2  C   UNK     0      26.435  30.575  -1.891  0.00  0.00     0.096 C 
ENDROOT
BRANCH   2   3
HETATM    3  C   UNK     0      27.872  30.152  -2.070  0.00  0.00     0.096 C 
HETATM    4 Br   UNK     0      28.247  28.629  -0.918  0.00  0.00    -0.096 Br
ENDBRANCH   2   3
TORSDOF 1
