REMARK  1 active torsions:
REMARK  status: ('A' for Active; 'I' for Inactive)
REMARK    1  A    between atoms: C_3  and  C_4 
ROOT
HETATM    1 Br   UNK     0      21.130  35.430   2.013  0.00  0.00    -0.096 Br
HETATM    2  C   UNK     0      19.958  36.727   2.868  0.00  0.00     0.096 C 
ENDROOT
BRANCH   2   3
HETATM    3  C   UNK     0      18.906  36.003   3.670  0.00  0.00     0.096 C 
HETATM    4 Br   UNK     0      17.851  37.295   4.672  0.00  0.00    -0.096 Br
ENDBRANCH   2   3
TORSDOF 1
