REMARK  1 active torsions:
REMARK  status: ('A' for Active; 'I' for Inactive)
REMARK    1  A    between atoms: C_3  and  C_4 
ROOT
HETATM    1 Br   UNK     0      23.501  35.207   1.257  0.00  0.00    -0.096 Br
HETATM    2  C   UNK     0      21.684  35.903   1.229  0.00  0.00     0.096 C 
ENDROOT
BRANCH   2   3
HETATM    3  C   UNK     0      20.706  34.755   1.229  0.00  0.00     0.096 C 
HETATM    4 Br   UNK     0      18.889  35.451   1.257  0.00  0.00    -0.096 Br
ENDBRANCH   2   3
TORSDOF 1
