MODEL 5
REMARK VINA RESULT:    -1.888      1.719      2.963
REMARK INTER + INTRA:          -1.998
REMARK INTER:                  -1.998
REMARK INTRA:                   0.000
REMARK UNBOUND:                 0.000
REMARK  1 active torsions:
REMARK  status: ('A' for Active; 'I' for Inactive)
REMARK    1  A    between atoms: C_3  and  C_4 
ROOT
HETATM    1 Br   UNK     0      21.259  36.987   1.502  0.00  0.00    -0.096 Br
HETATM    2  C   UNK     0      20.855  35.088   1.374  0.00  0.00     0.096 C 
ENDROOT
BRANCH   2   3
HETATM    3  C   UNK     0      20.067  34.659   2.586  0.00  0.00     0.096 C 
HETATM    4 Br   UNK     0      19.246  36.219   3.411  0.00  0.00    -0.096 Br
ENDBRANCH   2   3
TORSDOF 1
ENDMDL
