MODEL 1
REMARK VINA RESULT:    -3.301      0.000      0.000
REMARK INTER + INTRA:          -3.494
REMARK INTER:                  -3.494
REMARK INTRA:                   0.000
REMARK UNBOUND:                 0.000
REMARK  1 active torsions:
REMARK  status: ('A' for Active; 'I' for Inactive)
REMARK    1  A    between atoms: C_3  and  C_4 
ROOT
HETATM    1 Br   UNK     0      17.375  36.922   2.372  0.00  0.00    -0.096 Br
HETATM    2  C   UNK     0      18.794  36.225   3.507  0.00  0.00     0.096 C 
ENDROOT
BRANCH   2   3
HETATM    3  C   UNK     0      19.733  35.385   2.678  0.00  0.00     0.096 C 
HETATM    4 Br   UNK     0      21.036  36.538   1.806  0.00  0.00    -0.096 Br
ENDBRANCH   2   3
TORSDOF 1
ENDMDL
