MODEL 8
REMARK VINA RESULT:    -1.591      2.185      2.258
REMARK INTER + INTRA:          -1.684
REMARK INTER:                  -1.684
REMARK INTRA:                   0.000
REMARK UNBOUND:                 0.000
REMARK  1 active torsions:
REMARK  status: ('A' for Active; 'I' for Inactive)
REMARK    1  A    between atoms: C_3  and  C_4 
ROOT
HETATM    1 Br   UNK     0      19.600  36.446   3.513  0.00  0.00    -0.096 Br
HETATM    2  C   UNK     0      20.865  37.076   2.176  0.00  0.00     0.096 C 
ENDROOT
BRANCH   2   3
HETATM    3  C   UNK     0      21.164  35.963   1.203  0.00  0.00     0.096 C 
HETATM    4 Br   UNK     0      20.743  34.251   2.027  0.00  0.00    -0.096 Br
ENDBRANCH   2   3
TORSDOF 1
ENDMDL
