MODEL 6
REMARK VINA RESULT:    -2.364      2.031      2.092
REMARK INTER + INTRA:          -2.502
REMARK INTER:                  -2.502
REMARK INTRA:                   0.000
REMARK UNBOUND:                 0.000
REMARK  1 active torsions:
REMARK  status: ('A' for Active; 'I' for Inactive)
REMARK    1  A    between atoms: C_3  and  C_4 
ROOT
HETATM    1 Br   UNK     0      18.026  36.691   1.764  0.00  0.00    -0.096 Br
HETATM    2  C   UNK     0      19.192  35.708   2.973  0.00  0.00     0.096 C 
ENDROOT
BRANCH   2   3
HETATM    3  C   UNK     0      20.392  35.201   2.214  0.00  0.00     0.096 C 
HETATM    4 Br   UNK     0      21.472  36.709   1.626  0.00  0.00    -0.096 Br
ENDBRANCH   2   3
TORSDOF 1
ENDMDL
