MODEL 7
REMARK VINA RESULT:    -1.485      2.246      2.471
REMARK INTER + INTRA:          -1.571
REMARK INTER:                  -1.571
REMARK INTRA:                   0.000
REMARK UNBOUND:                 0.000
REMARK  1 active torsions:
REMARK  status: ('A' for Active; 'I' for Inactive)
REMARK    1  A    between atoms: C_3  and  C_4 
ROOT
HETATM    1 Br   UNK     0      21.228  37.083   1.429  0.00  0.00    -0.096 Br
HETATM    2  C   UNK     0      20.094  36.862   2.995  0.00  0.00     0.096 C 
ENDROOT
BRANCH   2   3
HETATM    3  C   UNK     0      19.635  35.428   3.084  0.00  0.00     0.096 C 
HETATM    4 Br   UNK     0      20.776  34.311   1.973  0.00  0.00    -0.096 Br
ENDBRANCH   2   3
TORSDOF 1
ENDMDL
