MODEL 1
REMARK VINA RESULT:    -3.354      0.000      0.000
REMARK INTER + INTRA:          -3.550
REMARK INTER:                  -3.550
REMARK INTRA:                   0.000
REMARK UNBOUND:                 0.000
REMARK  1 active torsions:
REMARK  status: ('A' for Active; 'I' for Inactive)
REMARK    1  A    between atoms: C_3  and  C_4 
ROOT
HETATM    1 Br   UNK     0      21.078  36.494   1.942  0.00  0.00    -0.096 Br
HETATM    2  C   UNK     0      19.673  35.438   2.779  0.00  0.00     0.096 C 
ENDROOT
BRANCH   2   3
HETATM    3  C   UNK     0      18.744  36.351   3.540  0.00  0.00     0.096 C 
HETATM    4 Br   UNK     0      19.688  37.118   5.059  0.00  0.00    -0.096 Br
ENDBRANCH   2   3
TORSDOF 1
ENDMDL
