REMARK  1 active torsions:
REMARK  status: ('A' for Active; 'I' for Inactive)
REMARK    1  A    between atoms: C_3  and  C_4 
ROOT
HETATM    1 Br   UNK     0      22.942  34.945  -1.538  0.00  0.00    -0.096 Br
HETATM    2  C   UNK     0      21.833  36.023  -0.357  0.00  0.00     0.096 C 
ENDROOT
BRANCH   2   3
HETATM    3  C   UNK     0      21.149  35.128   0.646  0.00  0.00     0.096 C 
HETATM    4 Br   UNK     0      20.979  36.066   2.342  0.00  0.00    -0.096 Br
ENDBRANCH   2   3
TORSDOF 1
