REMARK  1 active torsions:
REMARK  status: ('A' for Active; 'I' for Inactive)
REMARK    1  A    between atoms: C_3  and  C_4 
ROOT
HETATM    1 Br   UNK     0      26.349  32.674  -2.438  0.00  0.00    -0.096 Br
HETATM    2  C   UNK     0      24.500  32.770  -3.038  0.00  0.00     0.096 C 
ENDROOT
BRANCH   2   3
HETATM    3  C   UNK     0      24.252  31.701  -4.072  0.00  0.00     0.096 C 
HETATM    4 Br   UNK     0      22.641  32.133  -5.076  0.00  0.00    -0.096 Br
ENDBRANCH   2   3
TORSDOF 1
