REMARK  1 active torsions:
REMARK  status: ('A' for Active; 'I' for Inactive)
REMARK    1  A    between atoms: C_3  and  C_4 
ROOT
HETATM    1 Br   UNK     0      21.271  35.672   1.878  0.00  0.00    -0.096 Br
HETATM    2  C   UNK     0      20.095  36.839   2.898  0.00  0.00     0.096 C 
ENDROOT
BRANCH   2   3
HETATM    3  C   UNK     0      19.018  36.015   3.558  0.00  0.00     0.096 C 
HETATM    4 Br   UNK     0      18.139  37.077   4.932  0.00  0.00    -0.096 Br
ENDBRANCH   2   3
TORSDOF 1
