REMARK  1 active torsions:
REMARK  status: ('A' for Active; 'I' for Inactive)
REMARK    1  A    between atoms: C_3  and  C_4 
ROOT
HETATM    1 Br   UNK     0      18.122  36.500   4.402  0.00  0.00    -0.096 Br
HETATM    2  C   UNK     0      19.742  35.519   3.952  0.00  0.00     0.096 C 
ENDROOT
BRANCH   2   3
HETATM    3  C   UNK     0      19.822  35.342   2.456  0.00  0.00     0.096 C 
HETATM    4 Br   UNK     0      21.469  36.141   1.796  0.00  0.00    -0.096 Br
ENDBRANCH   2   3
TORSDOF 1
