MODEL 1
REMARK VINA RESULT:    -1.800      0.000      0.000
REMARK INTER + INTRA:          -1.906
REMARK INTER:                  -1.906
REMARK INTRA:                   0.000
REMARK UNBOUND:                 0.000
REMARK  1 active torsions:
REMARK  status: ('A' for Active; 'I' for Inactive)
REMARK    1  A    between atoms: C_3  and  C_4 
ROOT
HETATM    1 Br   UNK     0      23.165  31.922  -4.160  0.00  0.00    -0.096 Br
HETATM    2  C   UNK     0      24.001  32.798  -2.636  0.00  0.00     0.096 C 
ENDROOT
BRANCH   2   3
HETATM    3  C   UNK     0      25.432  32.338  -2.514  0.00  0.00     0.096 C 
HETATM    4 Br   UNK     0      26.622  33.752  -3.124  0.00  0.00    -0.096 Br
ENDBRANCH   2   3
TORSDOF 1
ENDMDL
