MODEL 1
REMARK VINA RESULT:    -2.822      0.000      0.000
REMARK INTER + INTRA:          -2.987
REMARK INTER:                  -2.987
REMARK INTRA:                   0.000
REMARK UNBOUND:                 0.000
REMARK  1 active torsions:
REMARK  status: ('A' for Active; 'I' for Inactive)
REMARK    1  A    between atoms: C_3  and  C_4 
ROOT
HETATM    1 Br   UNK     0      19.081  36.993   5.267  0.00  0.00    -0.096 Br
HETATM    2  C   UNK     0      17.582  37.014   4.026  0.00  0.00     0.096 C 
ENDROOT
BRANCH   2   3
HETATM    3  C   UNK     0      18.065  36.642   2.647  0.00  0.00     0.096 C 
HETATM    4 Br   UNK     0      19.927  36.085   2.741  0.00  0.00    -0.096 Br
ENDBRANCH   2   3
TORSDOF 1
ENDMDL
