MODEL 1
REMARK VINA RESULT:    -2.776      0.000      0.000
REMARK INTER + INTRA:          -2.938
REMARK INTER:                  -2.938
REMARK INTRA:                   0.000
REMARK UNBOUND:                 0.000
REMARK  1 active torsions:
REMARK  status: ('A' for Active; 'I' for Inactive)
REMARK    1  A    between atoms: C_3  and  C_4 
ROOT
HETATM    1 Br   UNK     0      19.767  37.185   5.158  0.00  0.00    -0.096 Br
HETATM    2  C   UNK     0      18.289  36.441   4.135  0.00  0.00     0.096 C 
ENDROOT
BRANCH   2   3
HETATM    3  C   UNK     0      18.639  36.447   2.668  0.00  0.00     0.096 C 
HETATM    4 Br   UNK     0      20.534  36.060   2.452  0.00  0.00    -0.096 Br
ENDBRANCH   2   3
TORSDOF 1
ENDMDL
