MODEL 1
REMARK VINA RESULT:     3.750      0.000      0.000
REMARK INTER + INTRA:           3.969
REMARK INTER:                   3.969
REMARK INTRA:                   0.000
REMARK UNBOUND:                 0.000
REMARK  1 active torsions:
REMARK  status: ('A' for Active; 'I' for Inactive)
REMARK    1  A    between atoms: C_3  and  C_4 
ROOT
HETATM    1 Br   UNK     0      23.132  31.933  -4.240  0.00  0.00    -0.096 Br
HETATM    2  C   UNK     0      23.995  32.792  -2.723  0.00  0.00     0.096 C 
ENDROOT
BRANCH   2   3
HETATM    3  C   UNK     0      25.439  32.362  -2.656  0.00  0.00     0.096 C 
HETATM    4 Br   UNK     0      26.585  33.867  -3.112  0.00  0.00    -0.096 Br
ENDBRANCH   2   3
TORSDOF 1
ENDMDL
