MODEL 1
REMARK VINA RESULT:    -1.801      0.000      0.000
REMARK INTER + INTRA:          -1.906
REMARK INTER:                  -1.906
REMARK INTRA:                   0.000
REMARK UNBOUND:                 0.000
REMARK  1 active torsions:
REMARK  status: ('A' for Active; 'I' for Inactive)
REMARK    1  A    between atoms: C_3  and  C_4 
ROOT
HETATM    1 Br   UNK     0      23.161  31.933  -4.136  0.00  0.00    -0.096 Br
HETATM    2  C   UNK     0      24.064  32.845  -2.673  0.00  0.00     0.096 C 
ENDROOT
BRANCH   2   3
HETATM    3  C   UNK     0      25.486  32.351  -2.574  0.00  0.00     0.096 C 
HETATM    4 Br   UNK     0      26.705  33.778  -3.087  0.00  0.00    -0.096 Br
ENDBRANCH   2   3
TORSDOF 1
ENDMDL
