MODEL 1
REMARK VINA RESULT:    -2.321      0.000      0.000
REMARK INTER + INTRA:          -2.457
REMARK INTER:                  -2.457
REMARK INTRA:                   0.000
REMARK UNBOUND:                 0.000
REMARK  1 active torsions:
REMARK  status: ('A' for Active; 'I' for Inactive)
REMARK    1  A    between atoms: C_3  and  C_4 
ROOT
HETATM    1 Br   UNK     0      17.855  36.725   2.008  0.00  0.00    -0.096 Br
HETATM    2  C   UNK     0      18.627  36.333   3.750  0.00  0.00     0.096 C 
ENDROOT
BRANCH   2   3
HETATM    3  C   UNK     0      20.094  36.684   3.740  0.00  0.00     0.096 C 
HETATM    4 Br   UNK     0      20.860  36.221   2.012  0.00  0.00    -0.096 Br
ENDBRANCH   2   3
TORSDOF 1
ENDMDL
