MODEL 1
REMARK VINA RESULT:    -2.830      0.000      0.000
REMARK INTER + INTRA:          -2.995
REMARK INTER:                  -2.995
REMARK INTRA:                   0.000
REMARK UNBOUND:                 0.000
REMARK  1 active torsions:
REMARK  status: ('A' for Active; 'I' for Inactive)
REMARK    1  A    between atoms: C_3  and  C_4 
ROOT
HETATM    1 Br   UNK     0      19.269  37.004   5.203  0.00  0.00    -0.096 Br
HETATM    2  C   UNK     0      17.712  36.937   4.038  0.00  0.00     0.096 C 
ENDROOT
BRANCH   2   3
HETATM    3  C   UNK     0      18.150  36.609   2.632  0.00  0.00     0.096 C 
HETATM    4 Br   UNK     0      20.028  36.099   2.641  0.00  0.00    -0.096 Br
ENDBRANCH   2   3
TORSDOF 1
ENDMDL
