MODEL 1
REMARK VINA RESULT:    -1.788      0.000      0.000
REMARK INTER + INTRA:          -1.893
REMARK INTER:                  -1.893
REMARK INTRA:                   0.000
REMARK UNBOUND:                 0.000
REMARK  1 active torsions:
REMARK  status: ('A' for Active; 'I' for Inactive)
REMARK    1  A    between atoms: C_3  and  C_4 
ROOT
HETATM    1 Br   UNK     0      23.245  31.908  -4.199  0.00  0.00    -0.096 Br
HETATM    2  C   UNK     0      24.011  32.792  -2.644  0.00  0.00     0.096 C 
ENDROOT
BRANCH   2   3
HETATM    3  C   UNK     0      25.437  32.340  -2.460  0.00  0.00     0.096 C 
HETATM    4 Br   UNK     0      26.645  33.723  -3.103  0.00  0.00    -0.096 Br
ENDBRANCH   2   3
TORSDOF 1
ENDMDL
