MODEL 1
REMARK VINA RESULT:    -2.861      0.000      0.000
REMARK INTER + INTRA:          -3.028
REMARK INTER:                  -3.028
REMARK INTRA:                   0.000
REMARK UNBOUND:                 0.000
REMARK  1 active torsions:
REMARK  status: ('A' for Active; 'I' for Inactive)
REMARK    1  A    between atoms: C_3  and  C_4 
ROOT
HETATM    1 Br   UNK     0      17.342  37.003   3.826  0.00  0.00    -0.096 Br
HETATM    2  C   UNK     0      19.199  36.442   3.982  0.00  0.00     0.096 C 
ENDROOT
BRANCH   2   3
HETATM    3  C   UNK     0      19.585  35.638   2.766  0.00  0.00     0.096 C 
HETATM    4 Br   UNK     0      21.086  36.495   1.871  0.00  0.00    -0.096 Br
ENDBRANCH   2   3
TORSDOF 1
ENDMDL
