MODEL 1
REMARK VINA RESULT:    -2.797      0.000      0.000
REMARK INTER + INTRA:          -2.960
REMARK INTER:                  -2.960
REMARK INTRA:                   0.000
REMARK UNBOUND:                 0.000
REMARK  1 active torsions:
REMARK  status: ('A' for Active; 'I' for Inactive)
REMARK    1  A    between atoms: C_3  and  C_4 
ROOT
HETATM    1 Br   UNK     0      19.773  37.133   5.168  0.00  0.00    -0.096 Br
HETATM    2  C   UNK     0      18.266  36.469   4.132  0.00  0.00     0.096 C 
ENDROOT
BRANCH   2   3
HETATM    3  C   UNK     0      18.614  36.493   2.665  0.00  0.00     0.096 C 
HETATM    4 Br   UNK     0      20.522  36.181   2.446  0.00  0.00    -0.096 Br
ENDBRANCH   2   3
TORSDOF 1
ENDMDL
