MODEL 1
REMARK VINA RESULT:    -1.791      0.000      0.000
REMARK INTER + INTRA:          -1.896
REMARK INTER:                  -1.896
REMARK INTRA:                   0.000
REMARK UNBOUND:                 0.000
REMARK  1 active torsions:
REMARK  status: ('A' for Active; 'I' for Inactive)
REMARK    1  A    between atoms: C_3  and  C_4 
ROOT
HETATM    1 Br   UNK     0      23.207  31.932  -4.178  0.00  0.00    -0.096 Br
HETATM    2  C   UNK     0      24.027  32.835  -2.661  0.00  0.00     0.096 C 
ENDROOT
BRANCH   2   3
HETATM    3  C   UNK     0      25.441  32.342  -2.486  0.00  0.00     0.096 C 
HETATM    4 Br   UNK     0      26.686  33.711  -3.088  0.00  0.00    -0.096 Br
ENDBRANCH   2   3
TORSDOF 1
ENDMDL
