MODEL 1
REMARK VINA RESULT:    -2.591      0.000      0.000
REMARK INTER + INTRA:          -2.742
REMARK INTER:                  -2.742
REMARK INTRA:                   0.000
REMARK UNBOUND:                 0.000
REMARK  1 active torsions:
REMARK  status: ('A' for Active; 'I' for Inactive)
REMARK    1  A    between atoms: C_3  and  C_4 
ROOT
HETATM    1 Br   UNK     0      17.681  36.876   3.711  0.00  0.00    -0.096 Br
HETATM    2  C   UNK     0      19.568  36.419   3.833  0.00  0.00     0.096 C 
ENDROOT
BRANCH   2   3
HETATM    3  C   UNK     0      19.936  35.496   2.698  0.00  0.00     0.096 C 
HETATM    4 Br   UNK     0      21.203  36.389   1.521  0.00  0.00    -0.096 Br
ENDBRANCH   2   3
TORSDOF 1
ENDMDL
