REMARK  1 active torsions:
REMARK  status: ('A' for Active; 'I' for Inactive)
REMARK    1  A    between atoms: C_3  and  C_4 
ROOT
HETATM    1 Br   UNK     0      25.554  33.299  -2.104  0.00  0.00    -0.096 Br
HETATM    2  C   UNK     0      23.737  33.995  -2.132  0.00  0.00     0.096 C 
ENDROOT
BRANCH   2   3
HETATM    3  C   UNK     0      22.759  32.847  -2.132  0.00  0.00     0.096 C 
HETATM    4 Br   UNK     0      20.942  33.543  -2.104  0.00  0.00    -0.096 Br
ENDBRANCH   2   3
TORSDOF 1
