MODEL 1
REMARK VINA RESULT:    -3.238      0.000      0.000
REMARK INTER + INTRA:          -3.427
REMARK INTER:                  -3.427
REMARK INTRA:                   0.000
REMARK UNBOUND:                 0.000
REMARK  1 active torsions:
REMARK  status: ('A' for Active; 'I' for Inactive)
REMARK    1  A    between atoms: C_3  and  C_4 
ROOT
HETATM    1 Br   UNK     0      19.806  37.139   4.943  0.00  0.00    -0.096 Br
HETATM    2  C   UNK     0      18.704  36.014   3.800  0.00  0.00     0.096 C 
ENDROOT
BRANCH   2   3
HETATM    3  C   UNK     0      18.963  36.359   2.355  0.00  0.00     0.096 C 
HETATM    4 Br   UNK     0      20.878  36.332   2.015  0.00  0.00    -0.096 Br
ENDBRANCH   2   3
TORSDOF 1
ENDMDL
