MODEL 1
REMARK VINA RESULT:    -2.263      0.000      0.000
REMARK INTER + INTRA:          -2.395
REMARK INTER:                  -2.395
REMARK INTRA:                   0.000
REMARK UNBOUND:                 0.000
REMARK  1 active torsions:
REMARK  status: ('A' for Active; 'I' for Inactive)
REMARK    1  A    between atoms: C_3  and  C_4 
ROOT
HETATM    1 Br   UNK     0      18.574  36.942   2.449  0.00  0.00    -0.096 Br
HETATM    2  C   UNK     0      19.613  35.449   3.140  0.00  0.00     0.096 C 
ENDROOT
BRANCH   2   3
HETATM    3  C   UNK     0      20.618  35.013   2.104  0.00  0.00     0.096 C 
HETATM    4 Br   UNK     0      21.321  36.578   1.185  0.00  0.00    -0.096 Br
ENDBRANCH   2   3
TORSDOF 1
ENDMDL
