MODEL 1
REMARK VINA RESULT:    -2.015      0.000      0.000
REMARK INTER + INTRA:          -2.133
REMARK INTER:                  -2.133
REMARK INTRA:                   0.000
REMARK UNBOUND:                 0.000
REMARK  1 active torsions:
REMARK  status: ('A' for Active; 'I' for Inactive)
REMARK    1  A    between atoms: C_3  and  C_4 
ROOT
HETATM    1 Br   UNK     0      24.136  32.894  -2.669  0.00  0.00    -0.096 Br
HETATM    2  C   UNK     0      25.888  33.634  -3.079  0.00  0.00     0.096 C 
ENDROOT
BRANCH   2   3
HETATM    3  C   UNK     0      26.945  32.876  -2.316  0.00  0.00     0.096 C 
HETATM    4 Br   UNK     0      26.095  31.543  -1.181  0.00  0.00    -0.096 Br
ENDBRANCH   2   3
TORSDOF 1
ENDMDL
