MODEL 1
REMARK VINA RESULT:    -3.332      0.000      0.000
REMARK INTER + INTRA:          -3.527
REMARK INTER:                  -3.527
REMARK INTRA:                   0.000
REMARK UNBOUND:                 0.000
REMARK  1 active torsions:
REMARK  status: ('A' for Active; 'I' for Inactive)
REMARK    1  A    between atoms: C_3  and  C_4 
ROOT
HETATM    1 Br   UNK     0      19.579  37.148   5.292  0.00  0.00    -0.096 Br
HETATM    2  C   UNK     0      18.678  36.582   3.663  0.00  0.00     0.096 C 
ENDROOT
BRANCH   2   3
HETATM    3  C   UNK     0      19.543  35.588   2.929  0.00  0.00     0.096 C 
HETATM    4 Br   UNK     0      20.937  36.535   1.956  0.00  0.00    -0.096 Br
ENDBRANCH   2   3
TORSDOF 1
ENDMDL
