MODEL 1
REMARK VINA RESULT:    -1.999      0.000      0.000
REMARK INTER + INTRA:          -2.116
REMARK INTER:                  -2.116
REMARK INTRA:                   0.000
REMARK UNBOUND:                 0.000
REMARK  1 active torsions:
REMARK  status: ('A' for Active; 'I' for Inactive)
REMARK    1  A    between atoms: C_3  and  C_4 
ROOT
HETATM    1 Br   UNK     0      23.262  31.940  -4.295  0.00  0.00    -0.096 Br
HETATM    2  C   UNK     0      23.860  32.835  -2.673  0.00  0.00     0.096 C 
ENDROOT
BRANCH   2   3
HETATM    3  C   UNK     0      25.286  32.443  -2.379  0.00  0.00     0.096 C 
HETATM    4 Br   UNK     0      26.491  33.790  -3.100  0.00  0.00    -0.096 Br
ENDBRANCH   2   3
TORSDOF 1
ENDMDL
