MODEL 1
REMARK VINA RESULT:    -1.992      0.000      0.000
REMARK INTER + INTRA:          -2.108
REMARK INTER:                  -2.108
REMARK INTRA:                   0.000
REMARK UNBOUND:                 0.000
REMARK  1 active torsions:
REMARK  status: ('A' for Active; 'I' for Inactive)
REMARK    1  A    between atoms: C_3  and  C_4 
ROOT
HETATM    1 Br   UNK     0      18.699  36.577   2.754  0.00  0.00    -0.096 Br
HETATM    2  C   UNK     0      19.833  35.000   2.865  0.00  0.00     0.096 C 
ENDROOT
BRANCH   2   3
HETATM    3  C   UNK     0      20.909  35.078   1.811  0.00  0.00     0.096 C 
HETATM    4 Br   UNK     0      21.260  36.943   1.380  0.00  0.00    -0.096 Br
ENDBRANCH   2   3
TORSDOF 1
ENDMDL
