MODEL 1
REMARK VINA RESULT:    36.243      0.000      0.000
REMARK INTER + INTRA:          38.361
REMARK INTER:                  38.361
REMARK INTRA:                   0.000
REMARK UNBOUND:                 0.000
REMARK  1 active torsions:
REMARK  status: ('A' for Active; 'I' for Inactive)
REMARK    1  A    between atoms: C_3  and  C_4 
ROOT
HETATM    1 Br   UNK     0      17.338  36.854   2.620  0.00  0.00    -0.096 Br
HETATM    2  C   UNK     0      18.892  36.208   3.596  0.00  0.00     0.096 C 
ENDROOT
BRANCH   2   3
HETATM    3  C   UNK     0      19.760  35.388   2.674  0.00  0.00     0.096 C 
HETATM    4 Br   UNK     0      21.075  36.543   1.824  0.00  0.00    -0.096 Br
ENDBRANCH   2   3
TORSDOF 1
ENDMDL
