MODEL 1
REMARK VINA RESULT:    -1.968      0.000      0.000
REMARK INTER + INTRA:          -2.083
REMARK INTER:                  -2.083
REMARK INTRA:                   0.000
REMARK UNBOUND:                 0.000
REMARK  1 active torsions:
REMARK  status: ('A' for Active; 'I' for Inactive)
REMARK    1  A    between atoms: C_3  and  C_4 
ROOT
HETATM    1 Br   UNK     0      26.153  31.505  -1.111  0.00  0.00    -0.096 Br
HETATM    2  C   UNK     0      26.753  32.916  -2.309  0.00  0.00     0.096 C 
ENDROOT
BRANCH   2   3
HETATM    3  C   UNK     0      25.703  33.159  -3.365  0.00  0.00     0.096 C 
HETATM    4 Br   UNK     0      23.935  32.931  -2.585  0.00  0.00    -0.096 Br
ENDBRANCH   2   3
TORSDOF 1
ENDMDL
