MODEL 1
REMARK VINA RESULT:    -1.967      0.000      0.000
REMARK INTER + INTRA:          -2.082
REMARK INTER:                  -2.082
REMARK INTRA:                   0.000
REMARK UNBOUND:                 0.000
REMARK  1 active torsions:
REMARK  status: ('A' for Active; 'I' for Inactive)
REMARK    1  A    between atoms: C_3  and  C_4 
ROOT
HETATM    1 Br   UNK     0      26.172  31.517  -1.098  0.00  0.00    -0.096 Br
HETATM    2  C   UNK     0      26.753  32.908  -2.328  0.00  0.00     0.096 C 
ENDROOT
BRANCH   2   3
HETATM    3  C   UNK     0      25.689  33.131  -3.373  0.00  0.00     0.096 C 
HETATM    4 Br   UNK     0      23.931  32.940  -2.561  0.00  0.00    -0.096 Br
ENDBRANCH   2   3
TORSDOF 1
ENDMDL
