MODEL 1
REMARK VINA RESULT:    -2.007      0.000      0.000
REMARK INTER + INTRA:          -2.124
REMARK INTER:                  -2.124
REMARK INTRA:                   0.000
REMARK UNBOUND:                 0.000
REMARK  1 active torsions:
REMARK  status: ('A' for Active; 'I' for Inactive)
REMARK    1  A    between atoms: C_3  and  C_4 
ROOT
HETATM    1 Br   UNK     0      26.075  31.508  -1.165  0.00  0.00    -0.096 Br
HETATM    2  C   UNK     0      26.871  32.889  -2.282  0.00  0.00     0.096 C 
ENDROOT
BRANCH   2   3
HETATM    3  C   UNK     0      25.810  33.491  -3.169  0.00  0.00     0.096 C 
HETATM    4 Br   UNK     0      24.054  32.899  -2.574  0.00  0.00    -0.096 Br
ENDBRANCH   2   3
TORSDOF 1
ENDMDL
