MODEL 1
REMARK VINA RESULT:    -2.015      0.000      0.000
REMARK INTER + INTRA:          -2.132
REMARK INTER:                  -2.132
REMARK INTRA:                   0.000
REMARK UNBOUND:                 0.000
REMARK  1 active torsions:
REMARK  status: ('A' for Active; 'I' for Inactive)
REMARK    1  A    between atoms: C_3  and  C_4 
ROOT
HETATM    1 Br   UNK     0      26.096  31.500  -1.158  0.00  0.00    -0.096 Br
HETATM    2  C   UNK     0      26.944  32.839  -2.287  0.00  0.00     0.096 C 
ENDROOT
BRANCH   2   3
HETATM    3  C   UNK     0      25.885  33.618  -3.026  0.00  0.00     0.096 C 
HETATM    4 Br   UNK     0      24.131  32.885  -2.608  0.00  0.00    -0.096 Br
ENDBRANCH   2   3
TORSDOF 1
ENDMDL
