MODEL 1
REMARK VINA RESULT:    -3.249      0.000      0.000
REMARK INTER + INTRA:          -3.438
REMARK INTER:                  -3.438
REMARK INTRA:                   0.000
REMARK UNBOUND:                 0.000
REMARK  1 active torsions:
REMARK  status: ('A' for Active; 'I' for Inactive)
REMARK    1  A    between atoms: C_3  and  C_4 
ROOT
HETATM    1 Br   UNK     0      17.408  36.895   2.456  0.00  0.00    -0.096 Br
HETATM    2  C   UNK     0      18.933  36.150   3.408  0.00  0.00     0.096 C 
ENDROOT
BRANCH   2   3
HETATM    3  C   UNK     0      19.788  35.360   2.449  0.00  0.00     0.096 C 
HETATM    4 Br   UNK     0      21.139  36.526   1.673  0.00  0.00    -0.096 Br
ENDBRANCH   2   3
TORSDOF 1
ENDMDL
