MODEL 1
REMARK VINA RESULT:    -2.873      0.000      0.000
REMARK INTER + INTRA:          -3.041
REMARK INTER:                  -3.041
REMARK INTRA:                   0.000
REMARK UNBOUND:                 0.000
REMARK  1 active torsions:
REMARK  status: ('A' for Active; 'I' for Inactive)
REMARK    1  A    between atoms: C_3  and  C_4 
ROOT
HETATM    1 Br   UNK     0      18.064  37.017   2.306  0.00  0.00    -0.096 Br
HETATM    2  C   UNK     0      19.194  35.861   3.390  0.00  0.00     0.096 C 
ENDROOT
BRANCH   2   3
HETATM    3  C   UNK     0      20.179  35.143   2.501  0.00  0.00     0.096 C 
HETATM    4 Br   UNK     0      21.191  36.447   1.471  0.00  0.00    -0.096 Br
ENDBRANCH   2   3
TORSDOF 1
ENDMDL
