MODEL 1
REMARK VINA RESULT:    -2.149      0.000      0.000
REMARK INTER + INTRA:          -2.275
REMARK INTER:                  -2.275
REMARK INTRA:                   0.000
REMARK UNBOUND:                 0.000
REMARK  1 active torsions:
REMARK  status: ('A' for Active; 'I' for Inactive)
REMARK    1  A    between atoms: C_3  and  C_4 
ROOT
HETATM    1 Br   UNK     0      21.320  36.843   1.300  0.00  0.00    -0.096 Br
HETATM    2  C   UNK     0      20.789  35.058   1.866  0.00  0.00     0.096 C 
ENDROOT
BRANCH   2   3
HETATM    3  C   UNK     0      19.776  35.164   2.978  0.00  0.00     0.096 C 
HETATM    4 Br   UNK     0      18.633  36.707   2.669  0.00  0.00    -0.096 Br
ENDBRANCH   2   3
TORSDOF 1
ENDMDL
