MODEL 1
REMARK VINA RESULT:    -3.326      0.000      0.000
REMARK INTER + INTRA:          -3.520
REMARK INTER:                  -3.520
REMARK INTRA:                   0.000
REMARK UNBOUND:                 0.000
REMARK  1 active torsions:
REMARK  status: ('A' for Active; 'I' for Inactive)
REMARK    1  A    between atoms: C_3  and  C_4 
ROOT
HETATM    1 Br   UNK     0      19.443  37.072   5.344  0.00  0.00    -0.096 Br
HETATM    2  C   UNK     0      18.625  36.636   3.633  0.00  0.00     0.096 C 
ENDROOT
BRANCH   2   3
HETATM    3  C   UNK     0      19.471  35.613   2.918  0.00  0.00     0.096 C 
HETATM    4 Br   UNK     0      20.888  36.515   1.936  0.00  0.00    -0.096 Br
ENDBRANCH   2   3
TORSDOF 1
ENDMDL
