MODEL 3
REMARK VINA RESULT:    -3.299      1.764      1.764
REMARK INTER + INTRA:          -3.492
REMARK INTER:                  -3.492
REMARK INTRA:                   0.000
REMARK UNBOUND:                 0.000
REMARK  1 active torsions:
REMARK  status: ('A' for Active; 'I' for Inactive)
REMARK    1  A    between atoms: C_3  and  C_4 
ROOT
HETATM    1 Br   UNK     0      20.980  36.555   1.846  0.00  0.00    -0.096 Br
HETATM    2  C   UNK     0      19.741  35.376   2.774  0.00  0.00     0.096 C 
ENDROOT
BRANCH   2   3
HETATM    3  C   UNK     0      18.787  36.200   3.603  0.00  0.00     0.096 C 
HETATM    4 Br   UNK     0      17.408  36.947   2.452  0.00  0.00    -0.096 Br
ENDBRANCH   2   3
TORSDOF 1
ENDMDL
