MODEL 7
REMARK VINA RESULT:    -1.886      1.801      2.014
REMARK INTER + INTRA:          -1.997
REMARK INTER:                  -1.997
REMARK INTRA:                   0.000
REMARK UNBOUND:                 0.000
REMARK  1 active torsions:
REMARK  status: ('A' for Active; 'I' for Inactive)
REMARK    1  A    between atoms: C_3  and  C_4 
ROOT
HETATM    1 Br   UNK     0      19.097  36.184   3.261  0.00  0.00    -0.096 Br
HETATM    2  C   UNK     0      20.056  34.655   2.534  0.00  0.00     0.096 C 
ENDROOT
BRANCH   2   3
HETATM    3  C   UNK     0      20.870  35.092   1.342  0.00  0.00     0.096 C 
HETATM    4 Br   UNK     0      21.256  36.994   1.483  0.00  0.00    -0.096 Br
ENDBRANCH   2   3
TORSDOF 1
ENDMDL
