MODEL 6
REMARK VINA RESULT:    -1.866      1.843      1.843
REMARK INTER + INTRA:          -1.976
REMARK INTER:                  -1.976
REMARK INTRA:                   0.000
REMARK UNBOUND:                 0.000
REMARK  1 active torsions:
REMARK  status: ('A' for Active; 'I' for Inactive)
REMARK    1  A    between atoms: C_3  and  C_4 
ROOT
HETATM    1 Br   UNK     0      20.947  35.805   0.790  0.00  0.00    -0.096 Br
HETATM    2  C   UNK     0      20.833  35.522   2.712  0.00  0.00     0.096 C 
ENDROOT
BRANCH   2   3
HETATM    3  C   UNK     0      19.994  36.611   3.331  0.00  0.00     0.096 C 
HETATM    4 Br   UNK     0      18.241  36.638   2.487  0.00  0.00    -0.096 Br
ENDBRANCH   2   3
TORSDOF 1
ENDMDL
