REMARK  1 active torsions:
REMARK  status: ('A' for Active; 'I' for Inactive)
REMARK    1  A    between atoms: C_3  and  C_4 
ROOT
HETATM    1 Br   UNK     0      18.386  36.393   2.740  0.00  0.00    -0.096 Br
HETATM    2  C   UNK     0      19.822  37.137   1.659  0.00  0.00     0.096 C 
ENDROOT
BRANCH   2   3
HETATM    3  C   UNK     0      21.101  36.389   1.940  0.00  0.00     0.096 C 
HETATM    4 Br   UNK     0      20.713  34.493   2.145  0.00  0.00    -0.096 Br
ENDBRANCH   2   3
TORSDOF 1
