REMARK  1 active torsions:
REMARK  status: ('A' for Active; 'I' for Inactive)
REMARK    1  A    between atoms: C_3  and  C_4 
ROOT
HETATM    1 Br   UNK     0      18.393  36.392   2.745  0.00  0.00    -0.096 Br
HETATM    2  C   UNK     0      19.825  37.143   1.663  0.00  0.00     0.096 C 
ENDROOT
BRANCH   2   3
HETATM    3  C   UNK     0      21.110  36.410   1.953  0.00  0.00     0.096 C 
HETATM    4 Br   UNK     0      20.742  34.510   2.160  0.00  0.00    -0.096 Br
ENDBRANCH   2   3
TORSDOF 1
