REMARK  1 active torsions:
REMARK  status: ('A' for Active; 'I' for Inactive)
REMARK    1  A    between atoms: C_3  and  C_4 
ROOT
HETATM    1 Br   UNK     0      21.281  35.836   2.235  0.00  0.00    -0.096 Br
HETATM    2  C   UNK     0      19.654  36.870   2.497  0.00  0.00     0.096 C 
ENDROOT
BRANCH   2   3
HETATM    3  C   UNK     0      18.500  35.934   2.757  0.00  0.00     0.096 C 
HETATM    4 Br   UNK     0      16.863  36.965   2.969  0.00  0.00    -0.096 Br
ENDBRANCH   2   3
TORSDOF 1
