REMARK  1 active torsions:
REMARK  status: ('A' for Active; 'I' for Inactive)
REMARK    1  A    between atoms: C_3  and  C_4 
ROOT
HETATM    1 Br   UNK     0      21.167  35.199   1.515  0.00  0.00    -0.096 Br
HETATM    2  C   UNK     0      20.096  36.803   1.775  0.00  0.00     0.096 C 
ENDROOT
BRANCH   2   3
HETATM    3  C   UNK     0      18.731  36.418   2.289  0.00  0.00     0.096 C 
HETATM    4 Br   UNK     0      18.743  36.433   4.235  0.00  0.00    -0.096 Br
ENDBRANCH   2   3
TORSDOF 1
