REMARK  1 active torsions:
REMARK  status: ('A' for Active; 'I' for Inactive)
REMARK    1  A    between atoms: C_3  and  C_4 
ROOT
HETATM    1 Br   UNK     0      21.294  35.695   0.968  0.00  0.00    -0.096 Br
HETATM    2  C   UNK     0      20.395  36.723   2.354  0.00  0.00     0.096 C 
ENDROOT
BRANCH   2   3
HETATM    3  C   UNK     0      19.511  35.808   3.165  0.00  0.00     0.096 C 
HETATM    4 Br   UNK     0      18.839  36.767   4.720  0.00  0.00    -0.096 Br
ENDBRANCH   2   3
TORSDOF 1
