REMARK  1 active torsions:
REMARK  status: ('A' for Active; 'I' for Inactive)
REMARK    1  A    between atoms: C_3  and  C_4 
ROOT
HETATM    1 Br   UNK     0      21.586  35.783   2.309  0.00  0.00    -0.096 Br
HETATM    2  C   UNK     0      19.970  36.855   2.476  0.00  0.00     0.096 C 
ENDROOT
BRANCH   2   3
HETATM    3  C   UNK     0      18.778  35.947   2.645  0.00  0.00     0.096 C 
HETATM    4 Br   UNK     0      17.165  37.018   2.828  0.00  0.00    -0.096 Br
ENDBRANCH   2   3
TORSDOF 1
