MODEL 1
REMARK VINA RESULT:    -2.006      0.000      0.000
REMARK INTER + INTRA:          -2.123
REMARK INTER:                  -2.123
REMARK INTRA:                   0.000
REMARK UNBOUND:                 0.000
REMARK  1 active torsions:
REMARK  status: ('A' for Active; 'I' for Inactive)
REMARK    1  A    between atoms: C_3  and  C_4 
ROOT
HETATM    1 Br   UNK     0      24.031  32.896  -2.576  0.00  0.00    -0.096 Br
HETATM    2  C   UNK     0      25.783  33.416  -3.245  0.00  0.00     0.096 C 
ENDROOT
BRANCH   2   3
HETATM    3  C   UNK     0      26.852  32.868  -2.333  0.00  0.00     0.096 C 
HETATM    4 Br   UNK     0      26.080  31.513  -1.170  0.00  0.00    -0.096 Br
ENDBRANCH   2   3
TORSDOF 1
ENDMDL
