MODEL 1
REMARK VINA RESULT:    -2.199      0.000      0.000
REMARK INTER + INTRA:          -2.328
REMARK INTER:                  -2.328
REMARK INTRA:                   0.000
REMARK UNBOUND:                 0.000
REMARK  1 active torsions:
REMARK  status: ('A' for Active; 'I' for Inactive)
REMARK    1  A    between atoms: C_3  and  C_4 
ROOT
HETATM    1 Br   UNK     0      18.574  36.906   2.786  0.00  0.00    -0.096 Br
HETATM    2  C   UNK     0      19.702  35.360   3.139  0.00  0.00     0.096 C 
ENDROOT
BRANCH   2   3
HETATM    3  C   UNK     0      20.497  35.025   1.902  0.00  0.00     0.096 C 
HETATM    4 Br   UNK     0      21.463  36.605   1.304  0.00  0.00    -0.096 Br
ENDBRANCH   2   3
TORSDOF 1
ENDMDL
