MODEL 1
REMARK VINA RESULT:    -2.602      0.000      0.000
REMARK INTER + INTRA:          -2.754
REMARK INTER:                  -2.754
REMARK INTRA:                   0.000
REMARK UNBOUND:                 0.000
REMARK  1 active torsions:
REMARK  status: ('A' for Active; 'I' for Inactive)
REMARK    1  A    between atoms: C_3  and  C_4 
ROOT
HETATM    1 Br   UNK     0      18.336  36.866   2.624  0.00  0.00    -0.096 Br
HETATM    2  C   UNK     0      19.449  35.442   3.344  0.00  0.00     0.096 C 
ENDROOT
BRANCH   2   3
HETATM    3  C   UNK     0      20.400  34.960   2.277  0.00  0.00     0.096 C 
HETATM    4 Br   UNK     0      21.334  36.482   1.505  0.00  0.00    -0.096 Br
ENDBRANCH   2   3
TORSDOF 1
ENDMDL
