MODEL 1
REMARK VINA RESULT:    -2.308      0.000      0.000
REMARK INTER + INTRA:          -2.443
REMARK INTER:                  -2.443
REMARK INTRA:                   0.000
REMARK UNBOUND:                 0.000
REMARK  1 active torsions:
REMARK  status: ('A' for Active; 'I' for Inactive)
REMARK    1  A    between atoms: C_3  and  C_4 
ROOT
HETATM    1 Br   UNK     0      21.484  36.364   1.322  0.00  0.00    -0.096 Br
HETATM    2  C   UNK     0      20.371  34.971   2.101  0.00  0.00     0.096 C 
ENDROOT
BRANCH   2   3
HETATM    3  C   UNK     0      19.591  35.540   3.259  0.00  0.00     0.096 C 
HETATM    4 Br   UNK     0      18.488  37.017   2.636  0.00  0.00    -0.096 Br
ENDBRANCH   2   3
TORSDOF 1
ENDMDL
