MODEL 1
REMARK VINA RESULT:    -3.310      0.000      0.000
REMARK INTER + INTRA:          -3.503
REMARK INTER:                  -3.503
REMARK INTRA:                   0.000
REMARK UNBOUND:                 0.000
REMARK  1 active torsions:
REMARK  status: ('A' for Active; 'I' for Inactive)
REMARK    1  A    between atoms: C_3  and  C_4 
ROOT
HETATM    1 Br   UNK     0      19.831  37.157   5.125  0.00  0.00    -0.096 Br
HETATM    2  C   UNK     0      18.792  35.972   3.985  0.00  0.00     0.096 C 
ENDROOT
BRANCH   2   3
HETATM    3  C   UNK     0      19.041  36.320   2.538  0.00  0.00     0.096 C 
HETATM    4 Br   UNK     0      20.946  36.205   2.163  0.00  0.00    -0.096 Br
ENDBRANCH   2   3
TORSDOF 1
ENDMDL
