MODEL 1
REMARK VINA RESULT:    -3.302      0.000      0.000
REMARK INTER + INTRA:          -3.495
REMARK INTER:                  -3.495
REMARK INTRA:                   0.000
REMARK UNBOUND:                 0.000
REMARK  1 active torsions:
REMARK  status: ('A' for Active; 'I' for Inactive)
REMARK    1  A    between atoms: C_3  and  C_4 
ROOT
HETATM    1 Br   UNK     0      17.430  36.932   2.490  0.00  0.00    -0.096 Br
HETATM    2  C   UNK     0      18.843  36.156   3.580  0.00  0.00     0.096 C 
ENDROOT
BRANCH   2   3
HETATM    3  C   UNK     0      19.767  35.349   2.704  0.00  0.00     0.096 C 
HETATM    4 Br   UNK     0      21.020  36.540   1.811  0.00  0.00    -0.096 Br
ENDBRANCH   2   3
TORSDOF 1
ENDMDL
