MODEL 1
REMARK VINA RESULT:    -3.355      0.000      0.000
REMARK INTER + INTRA:          -3.551
REMARK INTER:                  -3.551
REMARK INTRA:                   0.000
REMARK UNBOUND:                 0.000
REMARK  1 active torsions:
REMARK  status: ('A' for Active; 'I' for Inactive)
REMARK    1  A    between atoms: C_3  and  C_4 
ROOT
HETATM    1 Br   UNK     0      20.897  36.504   1.840  0.00  0.00    -0.096 Br
HETATM    2  C   UNK     0      19.619  35.482   2.893  0.00  0.00     0.096 C 
ENDROOT
BRANCH   2   3
HETATM    3  C   UNK     0      18.659  36.426   3.572  0.00  0.00     0.096 C 
HETATM    4 Br   UNK     0      19.423  37.024   5.259  0.00  0.00    -0.096 Br
ENDBRANCH   2   3
TORSDOF 1
ENDMDL
