MODEL 1
REMARK VINA RESULT:    -3.302      0.000      0.000
REMARK INTER + INTRA:          -3.495
REMARK INTER:                  -3.495
REMARK INTRA:                   0.000
REMARK UNBOUND:                 0.000
REMARK  1 active torsions:
REMARK  status: ('A' for Active; 'I' for Inactive)
REMARK    1  A    between atoms: C_3  and  C_4 
ROOT
HETATM    1 Br   UNK     0      21.056  36.521   1.854  0.00  0.00    -0.096 Br
HETATM    2  C   UNK     0      19.742  35.352   2.688  0.00  0.00     0.096 C 
ENDROOT
BRANCH   2   3
HETATM    3  C   UNK     0      18.885  36.154   3.635  0.00  0.00     0.096 C 
HETATM    4 Br   UNK     0      17.390  36.929   2.660  0.00  0.00    -0.096 Br
ENDBRANCH   2   3
TORSDOF 1
ENDMDL
