MODEL 1
REMARK VINA RESULT:    -3.308      0.000      0.000
REMARK INTER + INTRA:          -3.501
REMARK INTER:                  -3.501
REMARK INTRA:                   0.000
REMARK UNBOUND:                 0.000
REMARK  1 active torsions:
REMARK  status: ('A' for Active; 'I' for Inactive)
REMARK    1  A    between atoms: C_3  and  C_4 
ROOT
HETATM    1 Br   UNK     0      19.753  37.163   5.150  0.00  0.00    -0.096 Br
HETATM    2  C   UNK     0      18.746  35.983   3.976  0.00  0.00     0.096 C 
ENDROOT
BRANCH   2   3
HETATM    3  C   UNK     0      18.987  36.378   2.540  0.00  0.00     0.096 C 
HETATM    4 Br   UNK     0      20.888  36.260   2.146  0.00  0.00    -0.096 Br
ENDBRANCH   2   3
TORSDOF 1
ENDMDL
