MODEL 1
REMARK VINA RESULT:    -2.789      0.000      0.000
REMARK INTER + INTRA:          -2.952
REMARK INTER:                  -2.952
REMARK INTRA:                   0.000
REMARK UNBOUND:                 0.000
REMARK  1 active torsions:
REMARK  status: ('A' for Active; 'I' for Inactive)
REMARK    1  A    between atoms: C_3  and  C_4 
ROOT
HETATM    1 Br   UNK     0      18.203  36.942   2.427  0.00  0.00    -0.096 Br
HETATM    2  C   UNK     0      19.327  35.649   3.349  0.00  0.00     0.096 C 
ENDROOT
BRANCH   2   3
HETATM    3  C   UNK     0      20.356  35.104   2.390  0.00  0.00     0.096 C 
HETATM    4 Br   UNK     0      21.203  36.577   1.441  0.00  0.00    -0.096 Br
ENDBRANCH   2   3
TORSDOF 1
ENDMDL
