MODEL 1
REMARK VINA RESULT:    -2.009      0.000      0.000
REMARK INTER + INTRA:          -2.126
REMARK INTER:                  -2.126
REMARK INTRA:                   0.000
REMARK UNBOUND:                 0.000
REMARK  1 active torsions:
REMARK  status: ('A' for Active; 'I' for Inactive)
REMARK    1  A    between atoms: C_3  and  C_4 
ROOT
HETATM    1 Br   UNK     0      26.087  31.537  -1.155  0.00  0.00    -0.096 Br
HETATM    2  C   UNK     0      26.943  32.817  -2.345  0.00  0.00     0.096 C 
ENDROOT
BRANCH   2   3
HETATM    3  C   UNK     0      25.887  33.605  -3.079  0.00  0.00     0.096 C 
HETATM    4 Br   UNK     0      24.128  32.892  -2.647  0.00  0.00    -0.096 Br
ENDBRANCH   2   3
TORSDOF 1
ENDMDL
