MODEL 1
REMARK VINA RESULT:    -1.987      0.000      0.000
REMARK INTER + INTRA:          -2.103
REMARK INTER:                  -2.103
REMARK INTRA:                   0.000
REMARK UNBOUND:                 0.000
REMARK  1 active torsions:
REMARK  status: ('A' for Active; 'I' for Inactive)
REMARK    1  A    between atoms: C_3  and  C_4 
ROOT
HETATM    1 Br   UNK     0      26.086  31.475  -1.134  0.00  0.00    -0.096 Br
HETATM    2  C   UNK     0      26.790  32.921  -2.230  0.00  0.00     0.096 C 
ENDROOT
BRANCH   2   3
HETATM    3  C   UNK     0      25.743  33.353  -3.225  0.00  0.00     0.096 C 
HETATM    4 Br   UNK     0      23.975  32.926  -2.533  0.00  0.00    -0.096 Br
ENDBRANCH   2   3
TORSDOF 1
ENDMDL
