MODEL 1
REMARK VINA RESULT:    -2.001      0.000      0.000
REMARK INTER + INTRA:          -2.118
REMARK INTER:                  -2.118
REMARK INTRA:                   0.000
REMARK UNBOUND:                 0.000
REMARK  1 active torsions:
REMARK  status: ('A' for Active; 'I' for Inactive)
REMARK    1  A    between atoms: C_3  and  C_4 
ROOT
HETATM    1 Br   UNK     0      23.213  31.931  -4.294  0.00  0.00    -0.096 Br
HETATM    2  C   UNK     0      23.835  32.865  -2.704  0.00  0.00     0.096 C 
ENDROOT
BRANCH   2   3
HETATM    3  C   UNK     0      25.258  32.463  -2.409  0.00  0.00     0.096 C 
HETATM    4 Br   UNK     0      26.471  33.814  -3.108  0.00  0.00    -0.096 Br
ENDBRANCH   2   3
TORSDOF 1
ENDMDL
