MODEL 1
REMARK VINA RESULT:    -2.005      0.000      0.000
REMARK INTER + INTRA:          -2.122
REMARK INTER:                  -2.122
REMARK INTRA:                   0.000
REMARK UNBOUND:                 0.000
REMARK  1 active torsions:
REMARK  status: ('A' for Active; 'I' for Inactive)
REMARK    1  A    between atoms: C_3  and  C_4 
ROOT
HETATM    1 Br   UNK     0      24.026  32.956  -2.528  0.00  0.00    -0.096 Br
HETATM    2  C   UNK     0      25.770  33.403  -3.267  0.00  0.00     0.096 C 
ENDROOT
BRANCH   2   3
HETATM    3  C   UNK     0      26.851  32.878  -2.356  0.00  0.00     0.096 C 
HETATM    4 Br   UNK     0      26.101  31.531  -1.168  0.00  0.00    -0.096 Br
ENDBRANCH   2   3
TORSDOF 1
ENDMDL
