MODEL 6
REMARK VINA RESULT:    -1.596      2.312      2.312
REMARK INTER + INTRA:          -1.690
REMARK INTER:                  -1.690
REMARK INTRA:                   0.000
REMARK UNBOUND:                 0.000
REMARK  1 active torsions:
REMARK  status: ('A' for Active; 'I' for Inactive)
REMARK    1  A    between atoms: C_3  and  C_4 
ROOT
HETATM    1 Br   UNK     0      19.622  36.372   3.655  0.00  0.00    -0.096 Br
HETATM    2  C   UNK     0      20.802  37.135   2.308  0.00  0.00     0.096 C 
ENDROOT
BRANCH   2   3
HETATM    3  C   UNK     0      21.186  36.068   1.314  0.00  0.00     0.096 C 
HETATM    4 Br   UNK     0      20.718  34.319   2.027  0.00  0.00    -0.096 Br
ENDBRANCH   2   3
TORSDOF 1
ENDMDL
