MODEL 3
REMARK VINA RESULT:    -3.265      1.921      2.010
REMARK INTER + INTRA:          -3.456
REMARK INTER:                  -3.456
REMARK INTRA:                   0.000
REMARK UNBOUND:                 0.000
REMARK  1 active torsions:
REMARK  status: ('A' for Active; 'I' for Inactive)
REMARK    1  A    between atoms: C_3  and  C_4 
ROOT
HETATM    1 Br   UNK     0      20.903  36.488   1.714  0.00  0.00    -0.096 Br
HETATM    2  C   UNK     0      19.714  35.391   2.796  0.00  0.00     0.096 C 
ENDROOT
BRANCH   2   3
HETATM    3  C   UNK     0      18.734  36.279   3.521  0.00  0.00     0.096 C 
HETATM    4 Br   UNK     0      17.406  36.944   2.263  0.00  0.00    -0.096 Br
ENDBRANCH   2   3
TORSDOF 1
ENDMDL
