REMARK  1 active torsions:
REMARK  status: ('A' for Active; 'I' for Inactive)
REMARK    1  A    between atoms: C_3  and  C_4 
ROOT
HETATM    1 Br   UNK     0      21.365  35.654   2.137  0.00  0.00    -0.096 Br
HETATM    2  C   UNK     0      20.118  36.923   2.924  0.00  0.00     0.096 C 
ENDROOT
BRANCH   2   3
HETATM    3  C   UNK     0      18.960  36.176   3.537  0.00  0.00     0.096 C 
HETATM    4 Br   UNK     0      17.898  37.398   4.617  0.00  0.00    -0.096 Br
ENDBRANCH   2   3
TORSDOF 1
