REMARK  1 active torsions:
REMARK  status: ('A' for Active; 'I' for Inactive)
REMARK    1  A    between atoms: C_3  and  C_4 
ROOT
HETATM    1 Br   UNK     0      26.213  32.818  -2.377  0.00  0.00    -0.096 Br
HETATM    2  C   UNK     0      24.635  32.499  -3.470  0.00  0.00     0.096 C 
ENDROOT
BRANCH   2   3
HETATM    3  C   UNK     0      24.691  31.104  -4.039  0.00  0.00     0.096 C 
HETATM    4 Br   UNK     0      23.242  30.865  -5.316  0.00  0.00    -0.096 Br
ENDBRANCH   2   3
TORSDOF 1
