REMARK  1 active torsions:
REMARK  status: ('A' for Active; 'I' for Inactive)
REMARK    1  A    between atoms: C_3  and  C_4 
ROOT
HETATM    1 Br   UNK     0      21.377  35.794   2.429  0.00  0.00    -0.096 Br
HETATM    2  C   UNK     0      19.805  36.885   2.781  0.00  0.00     0.096 C 
ENDROOT
BRANCH   2   3
HETATM    3  C   UNK     0      18.631  35.991   3.089  0.00  0.00     0.096 C 
HETATM    4 Br   UNK     0      17.071  37.083   3.488  0.00  0.00    -0.096 Br
ENDBRANCH   2   3
TORSDOF 1
