MODEL 1
REMARK VINA RESULT:    -2.811      0.000      0.000
REMARK INTER + INTRA:          -2.975
REMARK INTER:                  -2.975
REMARK INTRA:                   0.000
REMARK UNBOUND:                 0.000
REMARK  1 active torsions:
REMARK  status: ('A' for Active; 'I' for Inactive)
REMARK    1  A    between atoms: C_3  and  C_4 
ROOT
HETATM    1 Br   UNK     0      17.388  36.921   2.245  0.00  0.00    -0.096 Br
HETATM    2  C   UNK     0      17.825  36.881   4.140  0.00  0.00     0.096 C 
ENDROOT
BRANCH   2   3
HETATM    3  C   UNK     0      19.306  36.650   4.310  0.00  0.00     0.096 C 
HETATM    4 Br   UNK     0      20.065  36.048   2.622  0.00  0.00    -0.096 Br
ENDBRANCH   2   3
TORSDOF 1
ENDMDL
