MODEL 1
REMARK VINA RESULT:    -2.324      0.000      0.000
REMARK INTER + INTRA:          -2.460
REMARK INTER:                  -2.460
REMARK INTRA:                   0.000
REMARK UNBOUND:                 0.000
REMARK  1 active torsions:
REMARK  status: ('A' for Active; 'I' for Inactive)
REMARK    1  A    between atoms: C_3  and  C_4 
ROOT
HETATM    1 Br   UNK     0      21.241  36.428   1.378  0.00  0.00    -0.096 Br
HETATM    2  C   UNK     0      20.133  35.224   2.431  0.00  0.00     0.096 C 
ENDROOT
BRANCH   2   3
HETATM    3  C   UNK     0      19.372  36.015   3.465  0.00  0.00     0.096 C 
HETATM    4 Br   UNK     0      17.873  36.919   2.616  0.00  0.00    -0.096 Br
ENDBRANCH   2   3
TORSDOF 1
ENDMDL
