MODEL 1
REMARK VINA RESULT:    -2.586      0.000      0.000
REMARK INTER + INTRA:          -2.738
REMARK INTER:                  -2.738
REMARK INTRA:                   0.000
REMARK UNBOUND:                 0.000
REMARK  1 active torsions:
REMARK  status: ('A' for Active; 'I' for Inactive)
REMARK    1  A    between atoms: C_3  and  C_4 
ROOT
HETATM    1 Br   UNK     0      20.501  35.824   2.244  0.00  0.00    -0.096 Br
HETATM    2  C   UNK     0      19.854  36.553   3.929  0.00  0.00     0.096 C 
ENDROOT
BRANCH   2   3
HETATM    3  C   UNK     0      18.346  36.553   3.930  0.00  0.00     0.096 C 
HETATM    4 Br   UNK     0      17.695  36.920   2.134  0.00  0.00    -0.096 Br
ENDBRANCH   2   3
TORSDOF 1
ENDMDL
