MODEL 1
REMARK VINA RESULT:    -2.011      0.000      0.000
REMARK INTER + INTRA:          -2.129
REMARK INTER:                  -2.129
REMARK INTRA:                   0.000
REMARK UNBOUND:                 0.000
REMARK  1 active torsions:
REMARK  status: ('A' for Active; 'I' for Inactive)
REMARK    1  A    between atoms: C_3  and  C_4 
ROOT
HETATM    1 Br   UNK     0      18.058  36.899   2.194  0.00  0.00    -0.096 Br
HETATM    2  C   UNK     0      19.430  35.919   3.166  0.00  0.00     0.096 C 
ENDROOT
BRANCH   2   3
HETATM    3  C   UNK     0      20.309  35.182   2.188  0.00  0.00     0.096 C 
HETATM    4 Br   UNK     0      21.457  36.452   1.262  0.00  0.00    -0.096 Br
ENDBRANCH   2   3
TORSDOF 1
ENDMDL
