MODEL 1
REMARK VINA RESULT:    -1.797      0.000      0.000
REMARK INTER + INTRA:          -1.902
REMARK INTER:                  -1.902
REMARK INTRA:                   0.000
REMARK UNBOUND:                 0.000
REMARK  1 active torsions:
REMARK  status: ('A' for Active; 'I' for Inactive)
REMARK    1  A    between atoms: C_3  and  C_4 
ROOT
HETATM    1 Br   UNK     0      26.608  33.718  -3.132  0.00  0.00    -0.096 Br
HETATM    2  C   UNK     0      25.388  32.310  -2.568  0.00  0.00     0.096 C 
ENDROOT
BRANCH   2   3
HETATM    3  C   UNK     0      23.966  32.799  -2.690  0.00  0.00     0.096 C 
HETATM    4 Br   UNK     0      23.110  31.930  -4.207  0.00  0.00    -0.096 Br
ENDBRANCH   2   3
TORSDOF 1
ENDMDL
