MODEL 1
REMARK VINA RESULT:    -2.827      0.000      0.000
REMARK INTER + INTRA:          -2.992
REMARK INTER:                  -2.992
REMARK INTRA:                   0.000
REMARK UNBOUND:                 0.000
REMARK  1 active torsions:
REMARK  status: ('A' for Active; 'I' for Inactive)
REMARK    1  A    between atoms: C_3  and  C_4 
ROOT
HETATM    1 Br   UNK     0      19.197  37.023   5.230  0.00  0.00    -0.096 Br
HETATM    2  C   UNK     0      17.653  36.974   4.047  0.00  0.00     0.096 C 
ENDROOT
BRANCH   2   3
HETATM    3  C   UNK     0      18.102  36.634   2.648  0.00  0.00     0.096 C 
HETATM    4 Br   UNK     0      19.983  36.135   2.674  0.00  0.00    -0.096 Br
ENDBRANCH   2   3
TORSDOF 1
ENDMDL
