MODEL 1
REMARK VINA RESULT:    -2.825      0.000      0.000
REMARK INTER + INTRA:          -2.991
REMARK INTER:                  -2.991
REMARK INTRA:                   0.000
REMARK UNBOUND:                 0.000
REMARK  1 active torsions:
REMARK  status: ('A' for Active; 'I' for Inactive)
REMARK    1  A    between atoms: C_3  and  C_4 
ROOT
HETATM    1 Br   UNK     0      19.271  37.003   5.184  0.00  0.00    -0.096 Br
HETATM    2  C   UNK     0      17.698  36.909   4.043  0.00  0.00     0.096 C 
ENDROOT
BRANCH   2   3
HETATM    3  C   UNK     0      18.124  36.665   2.617  0.00  0.00     0.096 C 
HETATM    4 Br   UNK     0      19.878  35.824   2.600  0.00  0.00    -0.096 Br
ENDBRANCH   2   3
TORSDOF 1
ENDMDL
