MODEL 1
REMARK VINA RESULT:    -2.833      0.000      0.000
REMARK INTER + INTRA:          -2.999
REMARK INTER:                  -2.999
REMARK INTRA:                   0.000
REMARK UNBOUND:                 0.000
REMARK  1 active torsions:
REMARK  status: ('A' for Active; 'I' for Inactive)
REMARK    1  A    between atoms: C_3  and  C_4 
ROOT
HETATM    1 Br   UNK     0      19.900  35.987   2.653  0.00  0.00    -0.096 Br
HETATM    2  C   UNK     0      18.078  36.671   2.646  0.00  0.00     0.096 C 
ENDROOT
BRANCH   2   3
HETATM    3  C   UNK     0      17.643  36.957   4.061  0.00  0.00     0.096 C 
HETATM    4 Br   UNK     0      19.206  37.027   5.218  0.00  0.00    -0.096 Br
ENDBRANCH   2   3
TORSDOF 1
ENDMDL
