MODEL 1
REMARK VINA RESULT:    -2.655      0.000      0.000
REMARK INTER + INTRA:          -2.810
REMARK INTER:                  -2.810
REMARK INTRA:                   0.000
REMARK UNBOUND:                 0.000
REMARK  1 active torsions:
REMARK  status: ('A' for Active; 'I' for Inactive)
REMARK    1  A    between atoms: C_3  and  C_4 
ROOT
HETATM    1 Br   UNK     0      17.647  36.825   2.313  0.00  0.00    -0.096 Br
HETATM    2  C   UNK     0      18.363  36.424   4.077  0.00  0.00     0.096 C 
ENDROOT
BRANCH   2   3
HETATM    3  C   UNK     0      19.858  36.617   4.068  0.00  0.00     0.096 C 
HETATM    4 Br   UNK     0      20.569  36.101   2.332  0.00  0.00    -0.096 Br
ENDBRANCH   2   3
TORSDOF 1
ENDMDL
