MODEL 1
REMARK VINA RESULT:    -2.831      0.000      0.000
REMARK INTER + INTRA:          -2.997
REMARK INTER:                  -2.997
REMARK INTRA:                   0.000
REMARK UNBOUND:                 0.000
REMARK  1 active torsions:
REMARK  status: ('A' for Active; 'I' for Inactive)
REMARK    1  A    between atoms: C_3  and  C_4 
ROOT
HETATM    1 Br   UNK     0      19.166  37.035   5.230  0.00  0.00    -0.096 Br
HETATM    2  C   UNK     0      17.644  36.931   4.021  0.00  0.00     0.096 C 
ENDROOT
BRANCH   2   3
HETATM    3  C   UNK     0      18.132  36.646   2.622  0.00  0.00     0.096 C 
HETATM    4 Br   UNK     0      19.995  36.086   2.687  0.00  0.00    -0.096 Br
ENDBRANCH   2   3
TORSDOF 1
ENDMDL
