MODEL 1
REMARK VINA RESULT:    -2.418      0.000      0.000
REMARK INTER + INTRA:          -2.559
REMARK INTER:                  -2.559
REMARK INTRA:                   0.000
REMARK UNBOUND:                 0.000
REMARK  1 active torsions:
REMARK  status: ('A' for Active; 'I' for Inactive)
REMARK    1  A    between atoms: C_3  and  C_4 
ROOT
HETATM    1 Br   UNK     0      17.765  36.755   2.033  0.00  0.00    -0.096 Br
HETATM    2  C   UNK     0      18.497  36.402   3.801  0.00  0.00     0.096 C 
ENDROOT
BRANCH   2   3
HETATM    3  C   UNK     0      19.969  36.726   3.810  0.00  0.00     0.096 C 
HETATM    4 Br   UNK     0      20.790  36.059   2.176  0.00  0.00    -0.096 Br
ENDBRANCH   2   3
TORSDOF 1
ENDMDL
