MODEL 1
REMARK VINA RESULT:    -2.795      0.000      0.000
REMARK INTER + INTRA:          -2.959
REMARK INTER:                  -2.959
REMARK INTRA:                   0.000
REMARK UNBOUND:                 0.000
REMARK  1 active torsions:
REMARK  status: ('A' for Active; 'I' for Inactive)
REMARK    1  A    between atoms: C_3  and  C_4 
ROOT
HETATM    1 Br   UNK     0      19.755  37.156   5.187  0.00  0.00    -0.096 Br
HETATM    2  C   UNK     0      18.251  36.485   4.152  0.00  0.00     0.096 C 
ENDROOT
BRANCH   2   3
HETATM    3  C   UNK     0      18.608  36.488   2.686  0.00  0.00     0.096 C 
HETATM    4 Br   UNK     0      20.520  36.188   2.484  0.00  0.00    -0.096 Br
ENDBRANCH   2   3
TORSDOF 1
ENDMDL
