MODEL 1
REMARK VINA RESULT:    -2.834      0.000      0.000
REMARK INTER + INTRA:          -2.999
REMARK INTER:                  -2.999
REMARK INTRA:                   0.000
REMARK UNBOUND:                 0.000
REMARK  1 active torsions:
REMARK  status: ('A' for Active; 'I' for Inactive)
REMARK    1  A    between atoms: C_3  and  C_4 
ROOT
HETATM    1 Br   UNK     0      19.310  37.016   5.218  0.00  0.00    -0.096 Br
HETATM    2  C   UNK     0      17.719  36.951   4.100  0.00  0.00     0.096 C 
ENDROOT
BRANCH   2   3
HETATM    3  C   UNK     0      18.115  36.636   2.679  0.00  0.00     0.096 C 
HETATM    4 Br   UNK     0      19.962  36.023   2.643  0.00  0.00    -0.096 Br
ENDBRANCH   2   3
TORSDOF 1
ENDMDL
