MODEL 7
REMARK VINA RESULT:    -1.942      1.756      1.946
REMARK INTER + INTRA:          -2.055
REMARK INTER:                  -2.055
REMARK INTRA:                   0.000
REMARK UNBOUND:                 0.000
REMARK  1 active torsions:
REMARK  status: ('A' for Active; 'I' for Inactive)
REMARK    1  A    between atoms: C_3  and  C_4 
ROOT
HETATM    1 Br   UNK     0      18.772  36.506   2.849  0.00  0.00    -0.096 Br
HETATM    2  C   UNK     0      19.846  34.884   2.867  0.00  0.00     0.096 C 
ENDROOT
BRANCH   2   3
HETATM    3  C   UNK     0      20.953  35.003   1.850  0.00  0.00     0.096 C 
HETATM    4 Br   UNK     0      21.241  36.880   1.422  0.00  0.00    -0.096 Br
ENDBRANCH   2   3
TORSDOF 1
ENDMDL
