MODEL 7
REMARK VINA RESULT:    -1.572      2.344      2.377
REMARK INTER + INTRA:          -1.664
REMARK INTER:                  -1.664
REMARK INTRA:                   0.000
REMARK UNBOUND:                 0.000
REMARK  1 active torsions:
REMARK  status: ('A' for Active; 'I' for Inactive)
REMARK    1  A    between atoms: C_3  and  C_4 
ROOT
HETATM    1 Br   UNK     0      18.805  36.290   2.735  0.00  0.00    -0.096 Br
HETATM    2  C   UNK     0      20.292  37.154   1.826  0.00  0.00     0.096 C 
ENDROOT
BRANCH   2   3
HETATM    3  C   UNK     0      21.387  36.145   1.582  0.00  0.00     0.096 C 
HETATM    4 Br   UNK     0      20.755  34.371   2.072  0.00  0.00    -0.096 Br
ENDBRANCH   2   3
TORSDOF 1
ENDMDL
