REMARK  1 active torsions:
REMARK  status: ('A' for Active; 'I' for Inactive)
REMARK    1  A    between atoms: C_3  and  C_4 
ROOT
HETATM    1 Br   UNK     0      25.506  33.089  -2.851  0.00  0.00    -0.096 Br
HETATM    2  C   UNK     0      25.548  31.256  -3.503  0.00  0.00     0.096 C 
ENDROOT
BRANCH   2   3
HETATM    3  C   UNK     0      24.834  31.178  -4.829  0.00  0.00     0.096 C 
HETATM    4 Br   UNK     0      23.053  31.942  -4.653  0.00  0.00    -0.096 Br
ENDBRANCH   2   3
TORSDOF 1
