MODEL 7
REMARK VINA RESULT:    -1.148      2.176      2.411
REMARK INTER + INTRA:          -1.215
REMARK INTER:                  -1.215
REMARK INTRA:                   0.000
REMARK UNBOUND:                 0.000
REMARK  1 active torsions:
REMARK  status: ('A' for Active; 'I' for Inactive)
REMARK    1  A    between atoms: C_3  and  C_4 
ROOT
HETATM    1 Br   UNK     0      21.945  35.369  -0.466  0.00  0.00    -0.096 Br
HETATM    2  C   UNK     0      20.882  35.116   1.144  0.00  0.00     0.096 C 
ENDROOT
BRANCH   2   3
HETATM    3  C   UNK     0      20.979  36.347   2.009  0.00  0.00     0.096 C 
HETATM    4 Br   UNK     0      19.673  36.234   3.447  0.00  0.00    -0.096 Br
ENDBRANCH   2   3
TORSDOF 1
ENDMDL
