REMARK  1 active torsions:
REMARK  status: ('A' for Active; 'I' for Inactive)
REMARK    1  A    between atoms: C_3  and  C_4 
ROOT
HETATM    1 Br   UNK     0      25.321  33.650  -1.720  0.00  0.00    -0.096 Br
HETATM    2  C   UNK     0      23.504  34.346  -1.748  0.00  0.00     0.096 C 
ENDROOT
BRANCH   2   3
HETATM    3  C   UNK     0      22.526  33.198  -1.748  0.00  0.00     0.096 C 
HETATM    4 Br   UNK     0      20.709  33.894  -1.720  0.00  0.00    -0.096 Br
ENDBRANCH   2   3
TORSDOF 1
