MODEL 9
REMARK VINA RESULT:    -1.441      2.167      2.232
REMARK INTER + INTRA:          -1.526
REMARK INTER:                  -1.526
REMARK INTRA:                   0.000
REMARK UNBOUND:                 0.000
REMARK  1 active torsions:
REMARK  status: ('A' for Active; 'I' for Inactive)
REMARK    1  A    between atoms: C_3  and  C_4 
ROOT
HETATM    1 Br   UNK     0      20.656  34.306   2.309  0.00  0.00    -0.096 Br
HETATM    2  C   UNK     0      19.389  35.539   3.123  0.00  0.00     0.096 C 
ENDROOT
BRANCH   2   3
HETATM    3  C   UNK     0      19.561  36.909   2.517  0.00  0.00     0.096 C 
HETATM    4 Br   UNK     0      21.149  36.926   1.392  0.00  0.00    -0.096 Br
ENDBRANCH   2   3
TORSDOF 1
ENDMDL
