MODEL 9
REMARK VINA RESULT:    -1.604      2.199      2.396
REMARK INTER + INTRA:          -1.698
REMARK INTER:                  -1.698
REMARK INTRA:                   0.000
REMARK UNBOUND:                 0.000
REMARK  1 active torsions:
REMARK  status: ('A' for Active; 'I' for Inactive)
REMARK    1  A    between atoms: C_3  and  C_4 
ROOT
HETATM    1 Br   UNK     0      19.477  36.336   3.414  0.00  0.00    -0.096 Br
HETATM    2  C   UNK     0      20.665  37.069   2.058  0.00  0.00     0.096 C 
ENDROOT
BRANCH   2   3
HETATM    3  C   UNK     0      21.229  35.946   1.225  0.00  0.00     0.096 C 
HETATM    4 Br   UNK     0      20.764  34.239   2.036  0.00  0.00    -0.096 Br
ENDBRANCH   2   3
TORSDOF 1
ENDMDL
