MODEL 1
REMARK VINA RESULT:    -3.357      0.000      0.000
REMARK INTER + INTRA:          -3.553
REMARK INTER:                  -3.553
REMARK INTRA:                   0.000
REMARK UNBOUND:                 0.000
REMARK  1 active torsions:
REMARK  status: ('A' for Active; 'I' for Inactive)
REMARK    1  A    between atoms: C_3  and  C_4 
ROOT
HETATM    1 Br   UNK     0      19.429  37.016   5.154  0.00  0.00    -0.096 Br
HETATM    2  C   UNK     0      18.696  36.330   3.487  0.00  0.00     0.096 C 
ENDROOT
BRANCH   2   3
HETATM    3  C   UNK     0      19.713  35.438   2.820  0.00  0.00     0.096 C 
HETATM    4 Br   UNK     0      20.968  36.528   1.808  0.00  0.00    -0.096 Br
ENDBRANCH   2   3
TORSDOF 1
ENDMDL
