MODEL 6
REMARK VINA RESULT:    -1.528      2.216      2.480
REMARK INTER + INTRA:          -1.618
REMARK INTER:                  -1.618
REMARK INTRA:                   0.000
REMARK UNBOUND:                 0.000
REMARK  1 active torsions:
REMARK  status: ('A' for Active; 'I' for Inactive)
REMARK    1  A    between atoms: C_3  and  C_4 
ROOT
HETATM    1 Br   UNK     0      20.684  34.267   1.983  0.00  0.00    -0.096 Br
HETATM    2  C   UNK     0      19.576  35.437   3.073  0.00  0.00     0.096 C 
ENDROOT
BRANCH   2   3
HETATM    3  C   UNK     0      20.051  36.861   2.925  0.00  0.00     0.096 C 
HETATM    4 Br   UNK     0      21.337  36.967   1.468  0.00  0.00    -0.096 Br
ENDBRANCH   2   3
TORSDOF 1
ENDMDL
