MODEL 1
REMARK VINA RESULT:    -1.831      0.000      0.000
REMARK INTER + INTRA:          -1.938
REMARK INTER:                  -1.938
REMARK INTRA:                   0.000
REMARK UNBOUND:                 0.000
REMARK  1 active torsions:
REMARK  status: ('A' for Active; 'I' for Inactive)
REMARK    1  A    between atoms: C_3  and  C_4 
ROOT
HETATM    1 Br   UNK     0      24.114  32.807  -2.665  0.00  0.00    -0.096 Br
HETATM    2  C   UNK     0      25.776  32.867  -3.677  0.00  0.00     0.096 C 
ENDROOT
BRANCH   2   3
HETATM    3  C   UNK     0      26.733  33.825  -3.014  0.00  0.00     0.096 C 
HETATM    4 Br   UNK     0      28.230  34.175  -4.207  0.00  0.00    -0.096 Br
ENDBRANCH   2   3
TORSDOF 1
ENDMDL
