MODEL 1
REMARK VINA RESULT:    -1.832      0.000      0.000
REMARK INTER + INTRA:          -1.939
REMARK INTER:                  -1.939
REMARK INTRA:                   0.000
REMARK UNBOUND:                 0.000
REMARK  1 active torsions:
REMARK  status: ('A' for Active; 'I' for Inactive)
REMARK    1  A    between atoms: C_3  and  C_4 
ROOT
HETATM    1 Br   UNK     0      24.139  32.827  -2.663  0.00  0.00    -0.096 Br
HETATM    2  C   UNK     0      25.788  32.900  -3.694  0.00  0.00     0.096 C 
ENDROOT
BRANCH   2   3
HETATM    3  C   UNK     0      26.754  33.848  -3.030  0.00  0.00     0.096 C 
HETATM    4 Br   UNK     0      28.264  34.170  -4.215  0.00  0.00    -0.096 Br
ENDBRANCH   2   3
TORSDOF 1
ENDMDL
