MODEL 1
REMARK VINA RESULT:    -2.833      0.000      0.000
REMARK INTER + INTRA:          -2.999
REMARK INTER:                  -2.999
REMARK INTRA:                   0.000
REMARK UNBOUND:                 0.000
REMARK  1 active torsions:
REMARK  status: ('A' for Active; 'I' for Inactive)
REMARK    1  A    between atoms: C_3  and  C_4 
ROOT
HETATM    1 Br   UNK     0      19.219  37.036   5.227  0.00  0.00    -0.096 Br
HETATM    2  C   UNK     0      17.662  36.946   4.063  0.00  0.00     0.096 C 
ENDROOT
BRANCH   2   3
HETATM    3  C   UNK     0      18.107  36.660   2.651  0.00  0.00     0.096 C 
HETATM    4 Br   UNK     0      19.947  36.027   2.665  0.00  0.00    -0.096 Br
ENDBRANCH   2   3
TORSDOF 1
ENDMDL
