MODEL 1
REMARK VINA RESULT:    -2.858      0.000      0.000
REMARK INTER + INTRA:          -3.025
REMARK INTER:                  -3.025
REMARK INTRA:                   0.000
REMARK UNBOUND:                 0.000
REMARK  1 active torsions:
REMARK  status: ('A' for Active; 'I' for Inactive)
REMARK    1  A    between atoms: C_3  and  C_4 
ROOT
HETATM    1 Br   UNK     0      17.339  36.974   3.776  0.00  0.00    -0.096 Br
HETATM    2  C   UNK     0      19.202  36.448   3.972  0.00  0.00     0.096 C 
ENDROOT
BRANCH   2   3
HETATM    3  C   UNK     0      19.614  35.608   2.789  0.00  0.00     0.096 C 
HETATM    4 Br   UNK     0      21.091  36.473   1.863  0.00  0.00    -0.096 Br
ENDBRANCH   2   3
TORSDOF 1
ENDMDL
