MODEL 1
REMARK VINA RESULT:    -2.859      0.000      0.000
REMARK INTER + INTRA:          -3.026
REMARK INTER:                  -3.026
REMARK INTRA:                   0.000
REMARK UNBOUND:                 0.000
REMARK  1 active torsions:
REMARK  status: ('A' for Active; 'I' for Inactive)
REMARK    1  A    between atoms: C_3  and  C_4 
ROOT
HETATM    1 Br   UNK     0      17.398  36.991   3.839  0.00  0.00    -0.096 Br
HETATM    2  C   UNK     0      19.270  36.476   3.959  0.00  0.00     0.096 C 
ENDROOT
BRANCH   2   3
HETATM    3  C   UNK     0      19.634  35.622   2.771  0.00  0.00     0.096 C 
HETATM    4 Br   UNK     0      21.094  36.458   1.793  0.00  0.00    -0.096 Br
ENDBRANCH   2   3
TORSDOF 1
ENDMDL
