MODEL 1
REMARK VINA RESULT:    -2.248      0.000      0.000
REMARK INTER + INTRA:          -2.380
REMARK INTER:                  -2.380
REMARK INTRA:                   0.000
REMARK UNBOUND:                 0.000
REMARK  1 active torsions:
REMARK  status: ('A' for Active; 'I' for Inactive)
REMARK    1  A    between atoms: C_3  and  C_4 
ROOT
HETATM    1 Br   UNK     0      17.975  36.956   2.489  0.00  0.00    -0.096 Br
HETATM    2  C   UNK     0      19.345  35.857   3.329  0.00  0.00     0.096 C 
ENDROOT
BRANCH   2   3
HETATM    3  C   UNK     0      20.200  35.219   2.263  0.00  0.00     0.096 C 
HETATM    4 Br   UNK     0      21.316  36.577   1.428  0.00  0.00    -0.096 Br
ENDBRANCH   2   3
TORSDOF 1
ENDMDL
