MODEL 1
REMARK VINA RESULT:    -2.828      0.000      0.000
REMARK INTER + INTRA:          -2.994
REMARK INTER:                  -2.994
REMARK INTRA:                   0.000
REMARK UNBOUND:                 0.000
REMARK  1 active torsions:
REMARK  status: ('A' for Active; 'I' for Inactive)
REMARK    1  A    between atoms: C_3  and  C_4 
ROOT
HETATM    1 Br   UNK     0      19.100  37.024   5.247  0.00  0.00    -0.096 Br
HETATM    2  C   UNK     0      17.608  36.945   4.000  0.00  0.00     0.096 C 
ENDROOT
BRANCH   2   3
HETATM    3  C   UNK     0      18.128  36.673   2.611  0.00  0.00     0.096 C 
HETATM    4 Br   UNK     0      19.985  36.101   2.714  0.00  0.00    -0.096 Br
ENDBRANCH   2   3
TORSDOF 1
ENDMDL
