MODEL 1
REMARK VINA RESULT:    -2.865      0.000      0.000
REMARK INTER + INTRA:          -3.032
REMARK INTER:                  -3.032
REMARK INTRA:                   0.000
REMARK UNBOUND:                 0.000
REMARK  1 active torsions:
REMARK  status: ('A' for Active; 'I' for Inactive)
REMARK    1  A    between atoms: C_3  and  C_4 
ROOT
HETATM    1 Br   UNK     0      21.097  36.458   1.845  0.00  0.00    -0.096 Br
HETATM    2  C   UNK     0      19.585  35.655   2.771  0.00  0.00     0.096 C 
ENDROOT
BRANCH   2   3
HETATM    3  C   UNK     0      19.246  36.478   3.988  0.00  0.00     0.096 C 
HETATM    4 Br   UNK     0      17.379  37.023   3.902  0.00  0.00    -0.096 Br
ENDBRANCH   2   3
TORSDOF 1
ENDMDL
