MODEL 1
REMARK VINA RESULT:    -2.818      0.000      0.000
REMARK INTER + INTRA:          -2.983
REMARK INTER:                  -2.983
REMARK INTRA:                   0.000
REMARK UNBOUND:                 0.000
REMARK  1 active torsions:
REMARK  status: ('A' for Active; 'I' for Inactive)
REMARK    1  A    between atoms: C_3  and  C_4 
ROOT
HETATM    1 Br   UNK     0      17.385  36.901   2.228  0.00  0.00    -0.096 Br
HETATM    2  C   UNK     0      17.766  36.929   4.136  0.00  0.00     0.096 C 
ENDROOT
BRANCH   2   3
HETATM    3  C   UNK     0      19.226  36.629   4.362  0.00  0.00     0.096 C 
HETATM    4 Br   UNK     0      20.047  36.100   2.678  0.00  0.00    -0.096 Br
ENDBRANCH   2   3
TORSDOF 1
ENDMDL
