MODEL 1
REMARK VINA RESULT:    -2.509      0.000      0.000
REMARK INTER + INTRA:          -2.656
REMARK INTER:                  -2.656
REMARK INTRA:                   0.000
REMARK UNBOUND:                 0.000
REMARK  1 active torsions:
REMARK  status: ('A' for Active; 'I' for Inactive)
REMARK    1  A    between atoms: C_3  and  C_4 
ROOT
HETATM    1 Br   UNK     0      21.105  36.391   1.394  0.00  0.00    -0.096 Br
HETATM    2  C   UNK     0      19.895  35.495   2.626  0.00  0.00     0.096 C 
ENDROOT
BRANCH   2   3
HETATM    3  C   UNK     0      19.629  36.391   3.810  0.00  0.00     0.096 C 
HETATM    4 Br   UNK     0      17.762  36.940   3.802  0.00  0.00    -0.096 Br
ENDBRANCH   2   3
TORSDOF 1
ENDMDL
