MODEL 1
REMARK VINA RESULT:    -2.363      0.000      0.000
REMARK INTER + INTRA:          -2.501
REMARK INTER:                  -2.501
REMARK INTRA:                   0.000
REMARK UNBOUND:                 0.000
REMARK  1 active torsions:
REMARK  status: ('A' for Active; 'I' for Inactive)
REMARK    1  A    between atoms: C_3  and  C_4 
ROOT
HETATM    1 Br   UNK     0      17.814  36.955   2.415  0.00  0.00    -0.096 Br
HETATM    2  C   UNK     0      19.267  36.188   3.457  0.00  0.00     0.096 C 
ENDROOT
BRANCH   2   3
HETATM    3  C   UNK     0      20.159  35.374   2.553  0.00  0.00     0.096 C 
HETATM    4 Br   UNK     0      21.191  36.569   1.415  0.00  0.00    -0.096 Br
ENDBRANCH   2   3
TORSDOF 1
ENDMDL
