MODEL 1
REMARK VINA RESULT:    -2.836      0.000      0.000
REMARK INTER + INTRA:          -3.002
REMARK INTER:                  -3.002
REMARK INTRA:                   0.000
REMARK UNBOUND:                 0.000
REMARK  1 active torsions:
REMARK  status: ('A' for Active; 'I' for Inactive)
REMARK    1  A    between atoms: C_3  and  C_4 
ROOT
HETATM    1 Br   UNK     0      19.240  37.028   5.220  0.00  0.00    -0.096 Br
HETATM    2  C   UNK     0      17.683  36.940   4.056  0.00  0.00     0.096 C 
ENDROOT
BRANCH   2   3
HETATM    3  C   UNK     0      18.127  36.645   2.645  0.00  0.00     0.096 C 
HETATM    4 Br   UNK     0      19.988  36.076   2.656  0.00  0.00    -0.096 Br
ENDBRANCH   2   3
TORSDOF 1
ENDMDL
