REMARK  1 active torsions:
REMARK  status: ('A' for Active; 'I' for Inactive)
REMARK    1  A    between atoms: C_3  and  C_4 
ROOT
HETATM    1 Br   UNK     0      21.247  35.691   1.191  0.00  0.00    -0.096 Br
HETATM    2  C   UNK     0      20.417  36.591   2.703  0.00  0.00     0.096 C 
ENDROOT
BRANCH   2   3
HETATM    3  C   UNK     0      19.243  35.778   3.189  0.00  0.00     0.096 C 
HETATM    4 Br   UNK     0      18.116  36.882   4.327  0.00  0.00    -0.096 Br
ENDBRANCH   2   3
TORSDOF 1
