REMARK  1 active torsions:
REMARK  status: ('A' for Active; 'I' for Inactive)
REMARK    1  A    between atoms: C_3  and  C_4 
ROOT
HETATM    1 Br   UNK     0      21.056  35.601   1.429  0.00  0.00    -0.096 Br
HETATM    2  C   UNK     0      19.762  35.716   2.878  0.00  0.00     0.096 C 
ENDROOT
BRANCH   2   3
HETATM    3  C   UNK     0      20.097  36.894   3.759  0.00  0.00     0.096 C 
HETATM    4 Br   UNK     0      18.806  37.006   5.211  0.00  0.00    -0.096 Br
ENDBRANCH   2   3
TORSDOF 1
