REMARK  1 active torsions:
REMARK  status: ('A' for Active; 'I' for Inactive)
REMARK    1  A    between atoms: C_3  and  C_4 
ROOT
HETATM    1 Br   UNK     0      23.556  33.186  -2.486  0.00  0.00    -0.096 Br
HETATM    2  C   UNK     0      23.031  34.759  -1.466  0.00  0.00     0.096 C 
ENDROOT
BRANCH   2   3
HETATM    3  C   UNK     0      21.936  34.387  -0.499  0.00  0.00     0.096 C 
HETATM    4 Br   UNK     0      21.575  35.892   0.683  0.00  0.00    -0.096 Br
ENDBRANCH   2   3
TORSDOF 1
