REMARK  1 active torsions:
REMARK  status: ('A' for Active; 'I' for Inactive)
REMARK    1  A    between atoms: C_3  and  C_4 
ROOT
HETATM    1 Br   UNK     0      25.428  31.214  -1.597  0.00  0.00    -0.096 Br
HETATM    2  C   UNK     0      25.516  31.408  -3.531  0.00  0.00     0.096 C 
ENDROOT
BRANCH   2   3
HETATM    3  C   UNK     0      25.483  32.873  -3.890  0.00  0.00     0.096 C 
HETATM    4 Br   UNK     0      26.970  33.785  -3.029  0.00  0.00    -0.096 Br
ENDBRANCH   2   3
TORSDOF 1
