REMARK  1 active torsions:
REMARK  status: ('A' for Active; 'I' for Inactive)
REMARK    1  A    between atoms: C_3  and  C_4 
ROOT
HETATM    1 Br   UNK     0      24.306  31.943  -4.453  0.00  0.00    -0.096 Br
HETATM    2  C   UNK     0      25.728  30.837  -3.714  0.00  0.00     0.096 C 
ENDROOT
BRANCH   2   3
HETATM    3  C   UNK     0      26.591  31.672  -2.802  0.00  0.00     0.096 C 
HETATM    4 Br   UNK     0      26.228  31.195  -0.951  0.00  0.00    -0.096 Br
ENDBRANCH   2   3
TORSDOF 1
