REMARK  1 active torsions:
REMARK  status: ('A' for Active; 'I' for Inactive)
REMARK    1  A    between atoms: C_3  and  C_4 
ROOT
HETATM    1 Br   UNK     0      21.703  36.085   0.190  0.00  0.00    -0.096 Br
HETATM    2  C   UNK     0      21.096  35.712   2.001  0.00  0.00     0.096 C 
ENDROOT
BRANCH   2   3
HETATM    3  C   UNK     0      19.913  36.590   2.324  0.00  0.00     0.096 C 
HETATM    4 Br   UNK     0      18.952  35.848   3.845  0.00  0.00    -0.096 Br
ENDBRANCH   2   3
TORSDOF 1
