REMARK  1 active torsions:
REMARK  status: ('A' for Active; 'I' for Inactive)
REMARK    1  A    between atoms: C_3  and  C_4 
ROOT
HETATM    1 Br   UNK     0      23.270  32.509  -2.973  0.00  0.00    -0.096 Br
HETATM    2  C   UNK     0      24.685  32.585  -4.306  0.00  0.00     0.096 C 
ENDROOT
BRANCH   2   3
HETATM    3  C   UNK     0      24.969  31.195  -4.818  0.00  0.00     0.096 C 
HETATM    4 Br   UNK     0      26.839  30.756  -4.502  0.00  0.00    -0.096 Br
ENDBRANCH   2   3
TORSDOF 1
