REMARK  1 active torsions:
REMARK  status: ('A' for Active; 'I' for Inactive)
REMARK    1  A    between atoms: C_3  and  C_4 
ROOT
HETATM    1 Br   UNK     0      20.863  35.400   1.355  0.00  0.00    -0.096 Br
HETATM    2  C   UNK     0      20.287  36.671   2.711  0.00  0.00     0.096 C 
ENDROOT
BRANCH   2   3
HETATM    3  C   UNK     0      19.357  35.985   3.680  0.00  0.00     0.096 C 
HETATM    4 Br   UNK     0      19.067  37.133   5.224  0.00  0.00    -0.096 Br
ENDBRANCH   2   3
TORSDOF 1
