REMARK  1 active torsions:
REMARK  status: ('A' for Active; 'I' for Inactive)
REMARK    1  A    between atoms: C_3  and  C_4 
ROOT
HETATM    1 Br   UNK     0      21.734  35.733   0.922  0.00  0.00    -0.096 Br
HETATM    2  C   UNK     0      20.735  35.323   2.541  0.00  0.00     0.096 C 
ENDROOT
BRANCH   2   3
HETATM    3  C   UNK     0      20.409  36.603   3.268  0.00  0.00     0.096 C 
HETATM    4 Br   UNK     0      18.736  36.392   4.240  0.00  0.00    -0.096 Br
ENDBRANCH   2   3
TORSDOF 1
