REMARK  1 active torsions:
REMARK  status: ('A' for Active; 'I' for Inactive)
REMARK    1  A    between atoms: C_3  and  C_4 
ROOT
HETATM    1 Br   UNK     0      21.337  35.469   0.263  0.00  0.00    -0.096 Br
HETATM    2  C   UNK     0      21.032  36.045   2.097  0.00  0.00     0.096 C 
ENDROOT
BRANCH   2   3
HETATM    3  C   UNK     0      19.788  35.383   2.632  0.00  0.00     0.096 C 
HETATM    4 Br   UNK     0      19.076  36.435   4.106  0.00  0.00    -0.096 Br
ENDBRANCH   2   3
TORSDOF 1
