REMARK  1 active torsions:
REMARK  status: ('A' for Active; 'I' for Inactive)
REMARK    1  A    between atoms: C_3  and  C_4 
ROOT
HETATM    1 Br   UNK     0      21.168  35.542   1.712  0.00  0.00    -0.096 Br
HETATM    2  C   UNK     0      19.402  36.163   2.245  0.00  0.00     0.096 C 
ENDROOT
BRANCH   2   3
HETATM    3  C   UNK     0      19.366  36.356   3.740  0.00  0.00     0.096 C 
HETATM    4 Br   UNK     0      17.655  37.128   4.254  0.00  0.00    -0.096 Br
ENDBRANCH   2   3
TORSDOF 1
