REMARK  1 active torsions:
REMARK  status: ('A' for Active; 'I' for Inactive)
REMARK    1  A    between atoms: C_3  and  C_4 
ROOT
HETATM    1 Br   UNK     0      21.116  35.705   0.727  0.00  0.00    -0.096 Br
HETATM    2  C   UNK     0      20.692  36.579   2.412  0.00  0.00     0.096 C 
ENDROOT
BRANCH   2   3
HETATM    3  C   UNK     0      19.701  35.739   3.178  0.00  0.00     0.096 C 
HETATM    4 Br   UNK     0      18.777  36.851   4.482  0.00  0.00    -0.096 Br
ENDBRANCH   2   3
TORSDOF 1
