REMARK  1 active torsions:
REMARK  status: ('A' for Active; 'I' for Inactive)
REMARK    1  A    between atoms: C_3  and  C_4 
ROOT
HETATM    1 Br   UNK     0      20.936  35.560   1.919  0.00  0.00    -0.096 Br
HETATM    2  C   UNK     0      19.096  36.120   2.215  0.00  0.00     0.096 C 
ENDROOT
BRANCH   2   3
HETATM    3  C   UNK     0      18.868  36.336   3.689  0.00  0.00     0.096 C 
HETATM    4 Br   UNK     0      17.145  37.200   3.960  0.00  0.00    -0.096 Br
ENDBRANCH   2   3
TORSDOF 1
