REMARK  1 active torsions:
REMARK  status: ('A' for Active; 'I' for Inactive)
REMARK    1  A    between atoms: C_3  and  C_4 
ROOT
HETATM    1 Br   UNK     0      21.251  35.493   1.020  0.00  0.00    -0.096 Br
HETATM    2  C   UNK     0      20.231  36.613   2.243  0.00  0.00     0.096 C 
ENDROOT
BRANCH   2   3
HETATM    3  C   UNK     0      19.264  35.756   3.020  0.00  0.00     0.096 C 
HETATM    4 Br   UNK     0      17.949  36.894   3.895  0.00  0.00    -0.096 Br
ENDBRANCH   2   3
TORSDOF 1
