REMARK  1 active torsions:
REMARK  status: ('A' for Active; 'I' for Inactive)
REMARK    1  A    between atoms: C_3  and  C_4 
ROOT
HETATM    1 Br   UNK     0      21.044  36.238   1.303  0.00  0.00    -0.096 Br
HETATM    2  C   UNK     0      20.605  36.512   3.179  0.00  0.00     0.096 C 
ENDROOT
BRANCH   2   3
HETATM    3  C   UNK     0      19.156  36.167   3.413  0.00  0.00     0.096 C 
HETATM    4 Br   UNK     0      18.596  36.856   5.144  0.00  0.00    -0.096 Br
ENDBRANCH   2   3
TORSDOF 1
