REMARK  1 active torsions:
REMARK  status: ('A' for Active; 'I' for Inactive)
REMARK    1  A    between atoms: C_3  and  C_4 
ROOT
HETATM    1 Br   UNK     0      22.869  31.844  -4.886  0.00  0.00    -0.096 Br
HETATM    2  C   UNK     0      24.815  31.817  -4.955  0.00  0.00     0.096 C 
ENDROOT
BRANCH   2   3
HETATM    3  C   UNK     0      25.368  32.685  -3.852  0.00  0.00     0.096 C 
HETATM    4 Br   UNK     0      23.982  33.004  -2.523  0.00  0.00    -0.096 Br
ENDBRANCH   2   3
TORSDOF 1
