REMARK  1 active torsions:
REMARK  status: ('A' for Active; 'I' for Inactive)
REMARK    1  A    between atoms: C_3  and  C_4 
ROOT
HETATM    1 Br   UNK     0      24.344  31.959  -4.263  0.00  0.00    -0.096 Br
HETATM    2  C   UNK     0      25.641  30.860  -3.316  0.00  0.00     0.096 C 
ENDROOT
BRANCH   2   3
HETATM    3  C   UNK     0      26.240  31.654  -2.183  0.00  0.00     0.096 C 
HETATM    4 Br   UNK     0      26.401  30.520  -0.611  0.00  0.00    -0.096 Br
ENDBRANCH   2   3
TORSDOF 1
