REMARK  1 active torsions:
REMARK  status: ('A' for Active; 'I' for Inactive)
REMARK    1  A    between atoms: C_3  and  C_4 
ROOT
HETATM    1 Br   UNK     0      20.947  36.201   1.355  0.00  0.00    -0.096 Br
HETATM    2  C   UNK     0      20.587  36.288   3.264  0.00  0.00     0.096 C 
ENDROOT
BRANCH   2   3
HETATM    3  C   UNK     0      19.097  36.288   3.496  0.00  0.00     0.096 C 
HETATM    4 Br   UNK     0      18.716  36.983   5.273  0.00  0.00    -0.096 Br
ENDBRANCH   2   3
TORSDOF 1
