REMARK  1 active torsions:
REMARK  status: ('A' for Active; 'I' for Inactive)
REMARK    1  A    between atoms: C_3  and  C_4 
ROOT
HETATM    1 Br   UNK     0      23.543  32.816  -3.127  0.00  0.00    -0.096 Br
HETATM    2  C   UNK     0      23.545  33.872  -1.491  0.00  0.00     0.096 C 
ENDROOT
BRANCH   2   3
HETATM    3  C   UNK     0      22.563  35.009  -1.627  0.00  0.00     0.096 C 
HETATM    4 Br   UNK     0      21.697  35.325   0.086  0.00  0.00    -0.096 Br
ENDBRANCH   2   3
TORSDOF 1
