REMARK  1 active torsions:
REMARK  status: ('A' for Active; 'I' for Inactive)
REMARK    1  A    between atoms: C_3  and  C_4 
ROOT
HETATM    1 Br   UNK     0      23.022  34.182  -1.453  0.00  0.00    -0.096 Br
HETATM    2  C   UNK     0      21.924  35.524  -0.571  0.00  0.00     0.096 C 
ENDROOT
BRANCH   2   3
HETATM    3  C   UNK     0      21.526  35.028   0.797  0.00  0.00     0.096 C 
HETATM    4 Br   UNK     0      20.997  36.538   1.906  0.00  0.00    -0.096 Br
ENDBRANCH   2   3
TORSDOF 1
