REMARK  1 active torsions:
REMARK  status: ('A' for Active; 'I' for Inactive)
REMARK    1  A    between atoms: C_3  and  C_4 
ROOT
HETATM    1 Br   UNK     0      21.104  35.782   1.347  0.00  0.00    -0.096 Br
HETATM    2  C   UNK     0      19.753  35.723   2.745  0.00  0.00     0.096 C 
ENDROOT
BRANCH   2   3
HETATM    3  C   UNK     0      20.108  36.710   3.830  0.00  0.00     0.096 C 
HETATM    4 Br   UNK     0      18.549  37.038   4.947  0.00  0.00    -0.096 Br
ENDBRANCH   2   3
TORSDOF 1
