REMARK  1 active torsions:
REMARK  status: ('A' for Active; 'I' for Inactive)
REMARK    1  A    between atoms: C_3  and  C_4 
ROOT
HETATM    1 Br   UNK     0      23.978  32.240  -3.529  0.00  0.00    -0.096 Br
HETATM    2  C   UNK     0      23.716  33.171  -1.841  0.00  0.00     0.096 C 
ENDROOT
BRANCH   2   3
HETATM    3  C   UNK     0      22.540  34.107  -1.960  0.00  0.00     0.096 C 
HETATM    4 Br   UNK     0      22.244  34.997  -0.255  0.00  0.00    -0.096 Br
ENDBRANCH   2   3
TORSDOF 1
