REMARK  1 active torsions:
REMARK  status: ('A' for Active; 'I' for Inactive)
REMARK    1  A    between atoms: C_3  and  C_4 
ROOT
HETATM    1 Br   UNK     0      22.503  35.573  -1.909  0.00  0.00    -0.096 Br
HETATM    2  C   UNK     0      21.179  35.370  -0.498  0.00  0.00     0.096 C 
ENDROOT
BRANCH   2   3
HETATM    3  C   UNK     0      21.871  35.353   0.842  0.00  0.00     0.096 C 
HETATM    4 Br   UNK     0      20.542  35.205   2.256  0.00  0.00    -0.096 Br
ENDBRANCH   2   3
TORSDOF 1
