REMARK  1 active torsions:
REMARK  status: ('A' for Active; 'I' for Inactive)
REMARK    1  A    between atoms: C_3  and  C_4 
ROOT
HETATM    1 Br   UNK     0      21.551  35.389   1.550  0.00  0.00    -0.096 Br
HETATM    2  C   UNK     0      19.717  35.904   1.945  0.00  0.00     0.096 C 
ENDROOT
BRANCH   2   3
HETATM    3  C   UNK     0      19.552  36.074   3.434  0.00  0.00     0.096 C 
HETATM    4 Br   UNK     0      17.732  36.643   3.824  0.00  0.00    -0.096 Br
ENDBRANCH   2   3
TORSDOF 1
