REMARK  1 active torsions:
REMARK  status: ('A' for Active; 'I' for Inactive)
REMARK    1  A    between atoms: C_3  and  C_4 
ROOT
HETATM    1 Br   UNK     0      22.182  34.957  -0.033  0.00  0.00    -0.096 Br
HETATM    2  C   UNK     0      21.021  34.754   1.515  0.00  0.00     0.096 C 
ENDROOT
BRANCH   2   3
HETATM    3  C   UNK     0      20.775  36.105   2.140  0.00  0.00     0.096 C 
HETATM    4 Br   UNK     0      19.570  35.909   3.655  0.00  0.00    -0.096 Br
ENDBRANCH   2   3
TORSDOF 1
