REMARK  1 active torsions:
REMARK  status: ('A' for Active; 'I' for Inactive)
REMARK    1  A    between atoms: C_3  and  C_4 
ROOT
HETATM    1 Br   UNK     0      22.136  35.044  -0.353  0.00  0.00    -0.096 Br
HETATM    2  C   UNK     0      21.138  34.727   1.287  0.00  0.00     0.096 C 
ENDROOT
BRANCH   2   3
HETATM    3  C   UNK     0      20.893  36.039   1.988  0.00  0.00     0.096 C 
HETATM    4 Br   UNK     0      19.848  35.729   3.600  0.00  0.00    -0.096 Br
ENDBRANCH   2   3
TORSDOF 1
