REMARK  1 active torsions:
REMARK  status: ('A' for Active; 'I' for Inactive)
REMARK    1  A    between atoms: C_3  and  C_4 
ROOT
HETATM    1 Br   UNK     0      22.316  34.535   0.454  0.00  0.00    -0.096 Br
HETATM    2  C   UNK     0      21.328  35.834   1.513  0.00  0.00     0.096 C 
ENDROOT
BRANCH   2   3
HETATM    3  C   UNK     0      20.258  35.127   2.307  0.00  0.00     0.096 C 
HETATM    4 Br   UNK     0      19.306  36.419   3.408  0.00  0.00    -0.096 Br
ENDBRANCH   2   3
TORSDOF 1
