REMARK  1 active torsions:
REMARK  status: ('A' for Active; 'I' for Inactive)
REMARK    1  A    between atoms: C_3  and  C_4 
ROOT
HETATM    1 Br   UNK     0      23.367  33.069  -2.481  0.00  0.00    -0.096 Br
HETATM    2  C   UNK     0      23.221  34.162  -0.877  0.00  0.00     0.096 C 
ENDROOT
BRANCH   2   3
HETATM    3  C   UNK     0      22.197  35.247  -1.101  0.00  0.00     0.096 C 
HETATM    4 Br   UNK     0      22.010  36.306   0.521  0.00  0.00    -0.096 Br
ENDBRANCH   2   3
TORSDOF 1
