REMARK  1 active torsions:
REMARK  status: ('A' for Active; 'I' for Inactive)
REMARK    1  A    between atoms: C_3  and  C_4 
ROOT
HETATM    1 Br   UNK     0      24.036  32.033  -3.703  0.00  0.00    -0.096 Br
HETATM    2  C   UNK     0      23.811  32.986  -2.022  0.00  0.00     0.096 C 
ENDROOT
BRANCH   2   3
HETATM    3  C   UNK     0      22.658  33.951  -2.142  0.00  0.00     0.096 C 
HETATM    4 Br   UNK     0      22.397  34.865  -0.444  0.00  0.00    -0.096 Br
ENDBRANCH   2   3
TORSDOF 1
