REMARK  1 active torsions:
REMARK  status: ('A' for Active; 'I' for Inactive)
REMARK    1  A    between atoms: C_3  and  C_4 
ROOT
HETATM    1 Br   UNK     0      23.537  33.005  -2.316  0.00  0.00    -0.096 Br
HETATM    2  C   UNK     0      22.497  34.527  -1.691  0.00  0.00     0.096 C 
ENDROOT
BRANCH   2   3
HETATM    3  C   UNK     0      22.881  34.849  -0.269  0.00  0.00     0.096 C 
HETATM    4 Br   UNK     0      21.881  36.404   0.337  0.00  0.00    -0.096 Br
ENDBRANCH   2   3
TORSDOF 1
