REMARK  1 active torsions:
REMARK  status: ('A' for Active; 'I' for Inactive)
REMARK    1  A    between atoms: C_3  and  C_4 
ROOT
HETATM    1 Br   UNK     0      24.201  32.040  -3.705  0.00  0.00    -0.096 Br
HETATM    2  C   UNK     0      23.079  32.699  -2.258  0.00  0.00     0.096 C 
ENDROOT
BRANCH   2   3
HETATM    3  C   UNK     0      23.437  34.133  -1.959  0.00  0.00     0.096 C 
HETATM    4 Br   UNK     0      22.278  34.810  -0.550  0.00  0.00    -0.096 Br
ENDBRANCH   2   3
TORSDOF 1
