REMARK  1 active torsions:
REMARK  status: ('A' for Active; 'I' for Inactive)
REMARK    1  A    between atoms: C_3  and  C_4 
ROOT
HETATM    1 Br   UNK     0      23.287  32.719  -2.516  0.00  0.00    -0.096 Br
HETATM    2  C   UNK     0      23.221  33.914  -0.982  0.00  0.00     0.096 C 
ENDROOT
BRANCH   2   3
HETATM    3  C   UNK     0      22.316  35.080  -1.292  0.00  0.00     0.096 C 
HETATM    4 Br   UNK     0      22.207  36.246   0.262  0.00  0.00    -0.096 Br
ENDBRANCH   2   3
TORSDOF 1
