REMARK  1 active torsions:
REMARK  status: ('A' for Active; 'I' for Inactive)
REMARK    1  A    between atoms: C_3  and  C_4 
ROOT
HETATM    1 Br   UNK     0      21.904  35.282  -1.407  0.00  0.00    -0.096 Br
HETATM    2  C   UNK     0      21.421  34.671   0.377  0.00  0.00     0.096 C 
ENDROOT
BRANCH   2   3
HETATM    3  C   UNK     0      21.218  35.863   1.278  0.00  0.00     0.096 C 
HETATM    4 Br   UNK     0      20.681  35.255   3.047  0.00  0.00    -0.096 Br
ENDBRANCH   2   3
TORSDOF 1
