REMARK  1 active torsions:
REMARK  status: ('A' for Active; 'I' for Inactive)
REMARK    1  A    between atoms: C_3  and  C_4 
ROOT
HETATM    1 Br   UNK     0      23.775  34.316  -1.504  0.00  0.00    -0.096 Br
HETATM    2  C   UNK     0      22.554  35.590  -0.686  0.00  0.00     0.096 C 
ENDROOT
BRANCH   2   3
HETATM    3  C   UNK     0      21.383  34.852  -0.088  0.00  0.00     0.096 C 
HETATM    4 Br   UNK     0      20.189  36.121   0.779  0.00  0.00    -0.096 Br
ENDBRANCH   2   3
TORSDOF 1
