REMARK  1 active torsions:
REMARK  status: ('A' for Active; 'I' for Inactive)
REMARK    1  A    between atoms: C_3  and  C_4 
ROOT
HETATM    1 Br   UNK     0      21.457  35.268   1.471  0.00  0.00    -0.096 Br
HETATM    2  C   UNK     0      20.175  36.424   2.368  0.00  0.00     0.096 C 
ENDROOT
BRANCH   2   3
HETATM    3  C   UNK     0      19.086  35.583   2.985  0.00  0.00     0.096 C 
HETATM    4 Br   UNK     0      17.834  36.736   3.930  0.00  0.00    -0.096 Br
ENDBRANCH   2   3
TORSDOF 1
