REMARK  1 active torsions:
REMARK  status: ('A' for Active; 'I' for Inactive)
REMARK    1  A    between atoms: C_3  and  C_4 
ROOT
HETATM    1 Br   UNK     0      23.494  32.247  -2.998  0.00  0.00    -0.096 Br
HETATM    2  C   UNK     0      23.468  33.967  -2.088  0.00  0.00     0.096 C 
ENDROOT
BRANCH   2   3
HETATM    3  C   UNK     0      22.384  33.965  -1.039  0.00  0.00     0.096 C 
HETATM    4 Br   UNK     0      22.395  35.664  -0.092  0.00  0.00    -0.096 Br
ENDBRANCH   2   3
TORSDOF 1
