REMARK  1 active torsions:
REMARK  status: ('A' for Active; 'I' for Inactive)
REMARK    1  A    between atoms: C_3  and  C_4 
ROOT
HETATM    1 Br   UNK     0      22.102  34.839   1.231  0.00  0.00    -0.096 Br
HETATM    2  C   UNK     0      20.907  35.519   2.607  0.00  0.00     0.096 C 
ENDROOT
BRANCH   2   3
HETATM    3  C   UNK     0      19.630  36.007   1.969  0.00  0.00     0.096 C 
HETATM    4 Br   UNK     0      18.413  36.636   3.350  0.00  0.00    -0.096 Br
ENDBRANCH   2   3
TORSDOF 1
