REMARK  1 active torsions:
REMARK  status: ('A' for Active; 'I' for Inactive)
REMARK    1  A    between atoms: C_3  and  C_4 
ROOT
HETATM    1 Br   UNK     0      23.414  34.735  -1.814  0.00  0.00    -0.096 Br
HETATM    2  C   UNK     0      21.980  34.612  -0.505  0.00  0.00     0.096 C 
ENDROOT
BRANCH   2   3
HETATM    3  C   UNK     0      21.650  35.991   0.010  0.00  0.00     0.096 C 
HETATM    4 Br   UNK     0      20.178  35.874   1.278  0.00  0.00    -0.096 Br
ENDBRANCH   2   3
TORSDOF 1
