REMARK  1 active torsions:
REMARK  status: ('A' for Active; 'I' for Inactive)
REMARK    1  A    between atoms: C_3  and  C_4 
ROOT
HETATM    1 Br   UNK     0      21.867  35.114  -1.191  0.00  0.00    -0.096 Br
HETATM    2  C   UNK     0      21.336  34.680   0.630  0.00  0.00     0.096 C 
ENDROOT
BRANCH   2   3
HETATM    3  C   UNK     0      21.248  35.947   1.444  0.00  0.00     0.096 C 
HETATM    4 Br   UNK     0      20.662  35.519   3.249  0.00  0.00    -0.096 Br
ENDBRANCH   2   3
TORSDOF 1
