REMARK  1 active torsions:
REMARK  status: ('A' for Active; 'I' for Inactive)
REMARK    1  A    between atoms: C_3  and  C_4 
ROOT
HETATM    1 Br   UNK     0      23.805  33.561  -1.932  0.00  0.00    -0.096 Br
HETATM    2  C   UNK     0      23.081  35.165  -1.101  0.00  0.00     0.096 C 
ENDROOT
BRANCH   2   3
HETATM    3  C   UNK     0      21.824  34.815  -0.345  0.00  0.00     0.096 C 
HETATM    4 Br   UNK     0      21.131  36.408   0.532  0.00  0.00    -0.096 Br
ENDBRANCH   2   3
TORSDOF 1
