REMARK  1 active torsions:
REMARK  status: ('A' for Active; 'I' for Inactive)
REMARK    1  A    between atoms: C_3  and  C_4 
ROOT
HETATM    1 Br   UNK     0      22.787  35.038  -2.028  0.00  0.00    -0.096 Br
HETATM    2  C   UNK     0      22.383  35.267  -0.138  0.00  0.00     0.096 C 
ENDROOT
BRANCH   2   3
HETATM    3  C   UNK     0      20.902  35.490   0.036  0.00  0.00     0.096 C 
HETATM    4 Br   UNK     0      20.490  35.663   1.930  0.00  0.00    -0.096 Br
ENDBRANCH   2   3
TORSDOF 1
