REMARK  1 active torsions:
REMARK  status: ('A' for Active; 'I' for Inactive)
REMARK    1  A    between atoms: C_3  and  C_4 
ROOT
HETATM    1 Br   UNK     0      23.865  33.458  -2.254  0.00  0.00    -0.096 Br
HETATM    2  C   UNK     0      22.513  34.074  -0.997  0.00  0.00     0.096 C 
ENDROOT
BRANCH   2   3
HETATM    3  C   UNK     0      22.730  35.537  -0.702  0.00  0.00     0.096 C 
HETATM    4 Br   UNK     0      21.345  36.166   0.511  0.00  0.00    -0.096 Br
ENDBRANCH   2   3
TORSDOF 1
