REMARK  1 active torsions:
REMARK  status: ('A' for Active; 'I' for Inactive)
REMARK    1  A    between atoms: C_3  and  C_4 
ROOT
HETATM    1 Br   UNK     0      22.148  35.620  -1.802  0.00  0.00    -0.096 Br
HETATM    2  C   UNK     0      21.486  35.973  -0.007  0.00  0.00     0.096 C 
ENDROOT
BRANCH   2   3
HETATM    3  C   UNK     0      21.414  34.680   0.766  0.00  0.00     0.096 C 
HETATM    4 Br   UNK     0      20.805  35.041   2.579  0.00  0.00    -0.096 Br
ENDBRANCH   2   3
TORSDOF 1
