REMARK  1 active torsions:
REMARK  status: ('A' for Active; 'I' for Inactive)
REMARK    1  A    between atoms: C_3  and  C_4 
ROOT
HETATM    1 Br   UNK     0      22.213  34.843   1.449  0.00  0.00    -0.096 Br
HETATM    2  C   UNK     0      20.423  35.596   1.569  0.00  0.00     0.096 C 
ENDROOT
BRANCH   2   3
HETATM    3  C   UNK     0      20.092  35.879   3.012  0.00  0.00     0.096 C 
HETATM    4 Br   UNK     0      18.324  36.683   3.127  0.00  0.00    -0.096 Br
ENDBRANCH   2   3
TORSDOF 1
