REMARK  1 active torsions:
REMARK  status: ('A' for Active; 'I' for Inactive)
REMARK    1  A    between atoms: C_3  and  C_4 
ROOT
HETATM    1 Br   UNK     0      23.949  34.400  -1.800  0.00  0.00    -0.096 Br
HETATM    2  C   UNK     0      22.880  34.942  -0.267  0.00  0.00     0.096 C 
ENDROOT
BRANCH   2   3
HETATM    3  C   UNK     0      21.508  35.360  -0.733  0.00  0.00     0.096 C 
HETATM    4 Br   UNK     0      20.421  35.849   0.805  0.00  0.00    -0.096 Br
ENDBRANCH   2   3
TORSDOF 1
