REMARK  1 active torsions:
REMARK  status: ('A' for Active; 'I' for Inactive)
REMARK    1  A    between atoms: C_3  and  C_4 
ROOT
HETATM    1 Br   UNK     0      22.266  34.653   0.337  0.00  0.00    -0.096 Br
HETATM    2  C   UNK     0      21.507  35.236   2.032  0.00  0.00     0.096 C 
ENDROOT
BRANCH   2   3
HETATM    3  C   UNK     0      20.107  35.748   1.805  0.00  0.00     0.096 C 
HETATM    4 Br   UNK     0      19.327  36.279   3.507  0.00  0.00    -0.096 Br
ENDBRANCH   2   3
TORSDOF 1
