REMARK  1 active torsions:
REMARK  status: ('A' for Active; 'I' for Inactive)
REMARK    1  A    between atoms: C_3  and  C_4 
ROOT
HETATM    1 Br   UNK     0      22.053  35.565  -1.591  0.00  0.00    -0.096 Br
HETATM    2  C   UNK     0      22.092  35.422   0.350  0.00  0.00     0.096 C 
ENDROOT
BRANCH   2   3
HETATM    3  C   UNK     0      20.693  35.194   0.865  0.00  0.00     0.096 C 
HETATM    4 Br   UNK     0      20.740  34.995   2.800  0.00  0.00    -0.096 Br
ENDBRANCH   2   3
TORSDOF 1
