REMARK  1 active torsions:
REMARK  status: ('A' for Active; 'I' for Inactive)
REMARK    1  A    between atoms: C_3  and  C_4 
ROOT
HETATM    1 Br   UNK     0      24.064  31.859  -3.611  0.00  0.00    -0.096 Br
HETATM    2  C   UNK     0      23.793  33.518  -2.631  0.00  0.00     0.096 C 
ENDROOT
BRANCH   2   3
HETATM    3  C   UNK     0      22.685  33.332  -1.624  0.00  0.00     0.096 C 
HETATM    4 Br   UNK     0      22.452  34.974  -0.606  0.00  0.00    -0.096 Br
ENDBRANCH   2   3
TORSDOF 1
