REMARK  1 active torsions:
REMARK  status: ('A' for Active; 'I' for Inactive)
REMARK    1  A    between atoms: C_3  and  C_4 
ROOT
HETATM    1 Br   UNK     0      22.062  34.841  -0.079  0.00  0.00    -0.096 Br
HETATM    2  C   UNK     0      21.616  35.244   1.771  0.00  0.00     0.096 C 
ENDROOT
BRANCH   2   3
HETATM    3  C   UNK     0      20.165  35.646   1.863  0.00  0.00     0.096 C 
HETATM    4 Br   UNK     0      19.705  35.994   3.721  0.00  0.00    -0.096 Br
ENDBRANCH   2   3
TORSDOF 1
