REMARK  1 active torsions:
REMARK  status: ('A' for Active; 'I' for Inactive)
REMARK    1  A    between atoms: C_3  and  C_4 
ROOT
HETATM    1 Br   UNK     0      22.281  35.533  -2.003  0.00  0.00    -0.096 Br
HETATM    2  C   UNK     0      22.237  35.457  -0.059  0.00  0.00     0.096 C 
ENDROOT
BRANCH   2   3
HETATM    3  C   UNK     0      20.809  35.322   0.407  0.00  0.00     0.096 C 
HETATM    4 Br   UNK     0      20.769  35.190   2.348  0.00  0.00    -0.096 Br
ENDBRANCH   2   3
TORSDOF 1
