REMARK  1 active torsions:
REMARK  status: ('A' for Active; 'I' for Inactive)
REMARK    1  A    between atoms: C_3  and  C_4 
ROOT
HETATM    1 Br   UNK     0      21.777  35.273   1.252  0.00  0.00    -0.096 Br
HETATM    2  C   UNK     0      20.128  35.195   2.282  0.00  0.00     0.096 C 
ENDROOT
BRANCH   2   3
HETATM    3  C   UNK     0      19.718  36.590   2.683  0.00  0.00     0.096 C 
HETATM    4 Br   UNK     0      18.040  36.516   3.666  0.00  0.00    -0.096 Br
ENDBRANCH   2   3
TORSDOF 1
