REMARK  1 active torsions:
REMARK  status: ('A' for Active; 'I' for Inactive)
REMARK    1  A    between atoms: C_3  and  C_4 
ROOT
HETATM    1 Br   UNK     0      22.017  34.924  -0.393  0.00  0.00    -0.096 Br
HETATM    2  C   UNK     0      21.733  35.235   1.507  0.00  0.00     0.096 C 
ENDROOT
BRANCH   2   3
HETATM    3  C   UNK     0      20.281  35.562   1.751  0.00  0.00     0.096 C 
HETATM    4 Br   UNK     0      19.985  35.818   3.657  0.00  0.00    -0.096 Br
ENDBRANCH   2   3
TORSDOF 1
