REMARK  1 active torsions:
REMARK  status: ('A' for Active; 'I' for Inactive)
REMARK    1  A    between atoms: C_3  and  C_4 
ROOT
HETATM    1 Br   UNK     0      23.360  34.501  -1.765  0.00  0.00    -0.096 Br
HETATM    2  C   UNK     0      22.302  35.703  -0.660  0.00  0.00     0.096 C 
ENDROOT
BRANCH   2   3
HETATM    3  C   UNK     0      21.290  34.906   0.124  0.00  0.00     0.096 C 
HETATM    4 Br   UNK     0      20.269  36.102   1.270  0.00  0.00    -0.096 Br
ENDBRANCH   2   3
TORSDOF 1
