REMARK  1 active torsions:
REMARK  status: ('A' for Active; 'I' for Inactive)
REMARK    1  A    between atoms: C_3  and  C_4 
ROOT
HETATM    1 Br   UNK     0      22.344  34.861   1.073  0.00  0.00    -0.096 Br
HETATM    2  C   UNK     0      20.651  34.930   2.030  0.00  0.00     0.096 C 
ENDROOT
BRANCH   2   3
HETATM    3  C   UNK     0      20.327  36.361   2.375  0.00  0.00     0.096 C 
HETATM    4 Br   UNK     0      18.607  36.436   3.283  0.00  0.00    -0.096 Br
ENDBRANCH   2   3
TORSDOF 1
