REMARK  1 active torsions:
REMARK  status: ('A' for Active; 'I' for Inactive)
REMARK    1  A    between atoms: C_3  and  C_4 
ROOT
HETATM    1 Br   UNK     0      22.001  35.707  -1.830  0.00  0.00    -0.096 Br
HETATM    2  C   UNK     0      22.140  35.503   0.101  0.00  0.00     0.096 C 
ENDROOT
BRANCH   2   3
HETATM    3  C   UNK     0      20.782  35.181   0.671  0.00  0.00     0.096 C 
HETATM    4 Br   UNK     0      20.931  34.922   2.594  0.00  0.00    -0.096 Br
ENDBRANCH   2   3
TORSDOF 1
