REMARK  1 active torsions:
REMARK  status: ('A' for Active; 'I' for Inactive)
REMARK    1  A    between atoms: C_3  and  C_4 
ROOT
HETATM    1 Br   UNK     0      23.914  34.158  -2.010  0.00  0.00    -0.096 Br
HETATM    2  C   UNK     0      23.011  34.819  -0.418  0.00  0.00     0.096 C 
ENDROOT
BRANCH   2   3
HETATM    3  C   UNK     0      21.656  35.362  -0.797  0.00  0.00     0.096 C 
HETATM    4 Br   UNK     0      20.730  35.972   0.802  0.00  0.00    -0.096 Br
ENDBRANCH   2   3
TORSDOF 1
