REMARK  1 active torsions:
REMARK  status: ('A' for Active; 'I' for Inactive)
REMARK    1  A    between atoms: C_3  and  C_4 
ROOT
HETATM    1 Br   UNK     0      22.414  35.433  -1.957  0.00  0.00    -0.096 Br
HETATM    2  C   UNK     0      21.651  35.984  -0.254  0.00  0.00     0.096 C 
ENDROOT
BRANCH   2   3
HETATM    3  C   UNK     0      21.371  34.765   0.589  0.00  0.00     0.096 C 
HETATM    4 Br   UNK     0      20.659  35.320   2.314  0.00  0.00    -0.096 Br
ENDBRANCH   2   3
TORSDOF 1
