REMARK  1 active torsions:
REMARK  status: ('A' for Active; 'I' for Inactive)
REMARK    1  A    between atoms: C_3  and  C_4 
ROOT
HETATM    1 Br   UNK     0      22.136  35.709  -1.541  0.00  0.00    -0.096 Br
HETATM    2  C   UNK     0      21.645  34.791   0.103  0.00  0.00     0.096 C 
ENDROOT
BRANCH   2   3
HETATM    3  C   UNK     0      21.171  35.800   1.119  0.00  0.00     0.096 C 
HETATM    4 Br   UNK     0      20.627  34.877   2.744  0.00  0.00    -0.096 Br
ENDBRANCH   2   3
TORSDOF 1
