REMARK  1 active torsions:
REMARK  status: ('A' for Active; 'I' for Inactive)
REMARK    1  A    between atoms: C_3  and  C_4 
ROOT
HETATM    1 Br   UNK     0      22.200  34.954   1.316  0.00  0.00    -0.096 Br
HETATM    2  C   UNK     0      20.444  35.031   2.152  0.00  0.00     0.096 C 
ENDROOT
BRANCH   2   3
HETATM    3  C   UNK     0      20.093  36.467   2.452  0.00  0.00     0.096 C 
HETATM    4 Br   UNK     0      18.315  36.550   3.237  0.00  0.00    -0.096 Br
ENDBRANCH   2   3
TORSDOF 1
