REMARK  1 active torsions:
REMARK  status: ('A' for Active; 'I' for Inactive)
REMARK    1  A    between atoms: C_3  and  C_4 
ROOT
HETATM    1 Br   UNK     0      24.029  34.267  -1.940  0.00  0.00    -0.096 Br
HETATM    2  C   UNK     0      22.458  34.360  -0.796  0.00  0.00     0.096 C 
ENDROOT
BRANCH   2   3
HETATM    3  C   UNK     0      22.213  35.792  -0.393  0.00  0.00     0.096 C 
HETATM    4 Br   UNK     0      20.610  35.892   0.706  0.00  0.00    -0.096 Br
ENDBRANCH   2   3
TORSDOF 1
