REMARK  1 active torsions:
REMARK  status: ('A' for Active; 'I' for Inactive)
REMARK    1  A    between atoms: C_3  and  C_4 
ROOT
HETATM    1 Br   UNK     0      21.860  34.872  -1.157  0.00  0.00    -0.096 Br
HETATM    2  C   UNK     0      21.469  35.813   0.500  0.00  0.00     0.096 C 
ENDROOT
BRANCH   2   3
HETATM    3  C   UNK     0      21.060  34.820   1.558  0.00  0.00     0.096 C 
HETATM    4 Br   UNK     0      20.723  35.755   3.231  0.00  0.00    -0.096 Br
ENDBRANCH   2   3
TORSDOF 1
