REMARK  1 active torsions:
REMARK  status: ('A' for Active; 'I' for Inactive)
REMARK    1  A    between atoms: C_3  and  C_4 
ROOT
HETATM    1 Br   UNK     0      21.617  35.265   1.316  0.00  0.00    -0.096 Br
HETATM    2  C   UNK     0      19.833  35.846   1.830  0.00  0.00     0.096 C 
ENDROOT
BRANCH   2   3
HETATM    3  C   UNK     0      19.773  36.021   3.327  0.00  0.00     0.096 C 
HETATM    4 Br   UNK     0      18.005  36.655   3.835  0.00  0.00    -0.096 Br
ENDBRANCH   2   3
TORSDOF 1
