REMARK  1 active torsions:
REMARK  status: ('A' for Active; 'I' for Inactive)
REMARK    1  A    between atoms: C_3  and  C_4 
ROOT
HETATM    1 Br   UNK     0      24.160  32.189  -3.372  0.00  0.00    -0.096 Br
HETATM    2  C   UNK     0      22.925  33.487  -2.611  0.00  0.00     0.096 C 
ENDROOT
BRANCH   2   3
HETATM    3  C   UNK     0      23.297  33.750  -1.173  0.00  0.00     0.096 C 
HETATM    4 Br   UNK     0      22.097  35.089  -0.429  0.00  0.00    -0.096 Br
ENDBRANCH   2   3
TORSDOF 1
