REMARK  1 active torsions:
REMARK  status: ('A' for Active; 'I' for Inactive)
REMARK    1  A    between atoms: C_3  and  C_4 
ROOT
HETATM    1 Br   UNK     0      22.101  35.306  -0.881  0.00  0.00    -0.096 Br
HETATM    2  C   UNK     0      21.365  34.725   0.824  0.00  0.00     0.096 C 
ENDROOT
BRANCH   2   3
HETATM    3  C   UNK     0      21.051  35.932   1.673  0.00  0.00     0.096 C 
HETATM    4 Br   UNK     0      20.263  35.353   3.355  0.00  0.00    -0.096 Br
ENDBRANCH   2   3
TORSDOF 1
