REMARK  1 active torsions:
REMARK  status: ('A' for Active; 'I' for Inactive)
REMARK    1  A    between atoms: C_3  and  C_4 
ROOT
HETATM    1 Br   UNK     0      21.745  34.992  -1.205  0.00  0.00    -0.096 Br
HETATM    2  C   UNK     0      21.954  35.199   0.718  0.00  0.00     0.096 C 
ENDROOT
BRANCH   2   3
HETATM    3  C   UNK     0      20.606  35.458   1.345  0.00  0.00     0.096 C 
HETATM    4 Br   UNK     0      20.807  35.610   3.274  0.00  0.00    -0.096 Br
ENDBRANCH   2   3
TORSDOF 1
