REMARK  1 active torsions:
REMARK  status: ('A' for Active; 'I' for Inactive)
REMARK    1  A    between atoms: C_3  and  C_4 
ROOT
HETATM    1 Br   UNK     0      22.240  34.748   0.992  0.00  0.00    -0.096 Br
HETATM    2  C   UNK     0      21.146  35.410   2.459  0.00  0.00     0.096 C 
ENDROOT
BRANCH   2   3
HETATM    3  C   UNK     0      19.830  35.910   1.918  0.00  0.00     0.096 C 
HETATM    4 Br   UNK     0      18.714  36.521   3.391  0.00  0.00    -0.096 Br
ENDBRANCH   2   3
TORSDOF 1
