REMARK  1 active torsions:
REMARK  status: ('A' for Active; 'I' for Inactive)
REMARK    1  A    between atoms: C_3  and  C_4 
ROOT
HETATM    1 Br   UNK     0      22.230  34.924  -0.271  0.00  0.00    -0.096 Br
HETATM    2  C   UNK     0      20.750  35.339   0.922  0.00  0.00     0.096 C 
ENDROOT
BRANCH   2   3
HETATM    3  C   UNK     0      21.252  35.403   2.343  0.00  0.00     0.096 C 
HETATM    4 Br   UNK     0      19.783  35.873   3.529  0.00  0.00    -0.096 Br
ENDBRANCH   2   3
TORSDOF 1
