REMARK  1 active torsions:
REMARK  status: ('A' for Active; 'I' for Inactive)
REMARK    1  A    between atoms: C_3  and  C_4 
ROOT
HETATM    1 Br   UNK     0      23.942  33.648  -1.871  0.00  0.00    -0.096 Br
HETATM    2  C   UNK     0      22.438  34.806  -1.444  0.00  0.00     0.096 C 
ENDROOT
BRANCH   2   3
HETATM    3  C   UNK     0      22.466  35.146   0.025  0.00  0.00     0.096 C 
HETATM    4 Br   UNK     0      20.995  36.349   0.442  0.00  0.00    -0.096 Br
ENDBRANCH   2   3
TORSDOF 1
