REMARK  1 active torsions:
REMARK  status: ('A' for Active; 'I' for Inactive)
REMARK    1  A    between atoms: C_3  and  C_4 
ROOT
HETATM    1 Br   UNK     0      21.234  35.340   1.605  0.00  0.00    -0.096 Br
HETATM    2  C   UNK     0      19.958  36.496   2.511  0.00  0.00     0.096 C 
ENDROOT
BRANCH   2   3
HETATM    3  C   UNK     0      18.873  35.656   3.135  0.00  0.00     0.096 C 
HETATM    4 Br   UNK     0      17.628  36.808   4.089  0.00  0.00    -0.096 Br
ENDBRANCH   2   3
TORSDOF 1
