REMARK  1 active torsions:
REMARK  status: ('A' for Active; 'I' for Inactive)
REMARK    1  A    between atoms: C_3  and  C_4 
ROOT
HETATM    1 Br   UNK     0      21.986  35.025   1.256  0.00  0.00    -0.096 Br
HETATM    2  C   UNK     0      20.787  35.617   2.670  0.00  0.00     0.096 C 
ENDROOT
BRANCH   2   3
HETATM    3  C   UNK     0      19.473  36.046   2.067  0.00  0.00     0.096 C 
HETATM    4 Br   UNK     0      18.254  36.586   3.485  0.00  0.00    -0.096 Br
ENDBRANCH   2   3
TORSDOF 1
