REMARK  1 active torsions:
REMARK  status: ('A' for Active; 'I' for Inactive)
REMARK    1  A    between atoms: C_3  and  C_4 
ROOT
HETATM    1 Br   UNK     0      23.446  32.648  -2.344  0.00  0.00    -0.096 Br
HETATM    2  C   UNK     0      22.553  34.300  -1.833  0.00  0.00     0.096 C 
ENDROOT
BRANCH   2   3
HETATM    3  C   UNK     0      22.941  34.665  -0.422  0.00  0.00     0.096 C 
HETATM    4 Br   UNK     0      22.092  36.346   0.070  0.00  0.00    -0.096 Br
ENDBRANCH   2   3
TORSDOF 1
