REMARK  1 active torsions:
REMARK  status: ('A' for Active; 'I' for Inactive)
REMARK    1  A    between atoms: C_3  and  C_4 
ROOT
HETATM    1 Br   UNK     0      23.793  33.673  -2.064  0.00  0.00    -0.096 Br
HETATM    2  C   UNK     0      23.079  34.605  -0.512  0.00  0.00     0.096 C 
ENDROOT
BRANCH   2   3
HETATM    3  C   UNK     0      21.857  35.391  -0.917  0.00  0.00     0.096 C 
HETATM    4 Br   UNK     0      21.111  36.279   0.646  0.00  0.00    -0.096 Br
ENDBRANCH   2   3
TORSDOF 1
