REMARK  1 active torsions:
REMARK  status: ('A' for Active; 'I' for Inactive)
REMARK    1  A    between atoms: C_3  and  C_4 
ROOT
HETATM    1 Br   UNK     0      22.001  35.044  -0.662  0.00  0.00    -0.096 Br
HETATM    2  C   UNK     0      21.828  35.249   1.266  0.00  0.00     0.096 C 
ENDROOT
BRANCH   2   3
HETATM    3  C   UNK     0      20.378  35.465   1.620  0.00  0.00     0.096 C 
HETATM    4 Br   UNK     0      20.197  35.615   3.551  0.00  0.00    -0.096 Br
ENDBRANCH   2   3
TORSDOF 1
