REMARK  1 active torsions:
REMARK  status: ('A' for Active; 'I' for Inactive)
REMARK    1  A    between atoms: C_3  and  C_4 
ROOT
HETATM    1 Br   UNK     0      22.884  34.922  -1.945  0.00  0.00    -0.096 Br
HETATM    2  C   UNK     0      21.974  35.864  -0.506  0.00  0.00     0.096 C 
ENDROOT
BRANCH   2   3
HETATM    3  C   UNK     0      21.284  34.867   0.390  0.00  0.00     0.096 C 
HETATM    4 Br   UNK     0      20.420  35.806   1.860  0.00  0.00    -0.096 Br
ENDBRANCH   2   3
TORSDOF 1
