REMARK  1 active torsions:
REMARK  status: ('A' for Active; 'I' for Inactive)
REMARK    1  A    between atoms: C_3  and  C_4 
ROOT
HETATM    1 Br   UNK     0      23.916  32.361  -3.325  0.00  0.00    -0.096 Br
HETATM    2  C   UNK     0      22.828  33.054  -1.868  0.00  0.00     0.096 C 
ENDROOT
BRANCH   2   3
HETATM    3  C   UNK     0      23.222  34.481  -1.581  0.00  0.00     0.096 C 
HETATM    4 Br   UNK     0      22.096  35.191  -0.162  0.00  0.00    -0.096 Br
ENDBRANCH   2   3
TORSDOF 1
