REMARK  1 active torsions:
REMARK  status: ('A' for Active; 'I' for Inactive)
REMARK    1  A    between atoms: C_3  and  C_4 
ROOT
HETATM    1 Br   UNK     0      22.262  34.635   1.122  0.00  0.00    -0.096 Br
HETATM    2  C   UNK     0      21.086  35.983   1.887  0.00  0.00     0.096 C 
ENDROOT
BRANCH   2   3
HETATM    3  C   UNK     0      19.866  35.314   2.469  0.00  0.00     0.096 C 
HETATM    4 Br   UNK     0      18.716  36.656   3.283  0.00  0.00    -0.096 Br
ENDBRANCH   2   3
TORSDOF 1
