REMARK  1 active torsions:
REMARK  status: ('A' for Active; 'I' for Inactive)
REMARK    1  A    between atoms: C_3  and  C_4 
ROOT
HETATM    1 Br   UNK     0      23.660  32.291  -2.975  0.00  0.00    -0.096 Br
HETATM    2  C   UNK     0      22.687  33.813  -2.251  0.00  0.00     0.096 C 
ENDROOT
BRANCH   2   3
HETATM    3  C   UNK     0      23.163  34.092  -0.848  0.00  0.00     0.096 C 
HETATM    4 Br   UNK     0      22.231  35.648  -0.144  0.00  0.00    -0.096 Br
ENDBRANCH   2   3
TORSDOF 1
