REMARK  1 active torsions:
REMARK  status: ('A' for Active; 'I' for Inactive)
REMARK    1  A    between atoms: C_3  and  C_4 
ROOT
HETATM    1 Br   UNK     0      21.284  35.576   1.562  0.00  0.00    -0.096 Br
HETATM    2  C   UNK     0      19.666  35.392   2.628  0.00  0.00     0.096 C 
ENDROOT
BRANCH   2   3
HETATM    3  C   UNK     0      19.195  36.756   3.066  0.00  0.00     0.096 C 
HETATM    4 Br   UNK     0      17.547  36.576   4.085  0.00  0.00    -0.096 Br
ENDBRANCH   2   3
TORSDOF 1
