REMARK  1 active torsions:
REMARK  status: ('A' for Active; 'I' for Inactive)
REMARK    1  A    between atoms: C_3  and  C_4 
ROOT
HETATM    1 Br   UNK     0      23.324  32.479  -2.549  0.00  0.00    -0.096 Br
HETATM    2  C   UNK     0      23.382  34.255  -1.756  0.00  0.00     0.096 C 
ENDROOT
BRANCH   2   3
HETATM    3  C   UNK     0      22.250  34.402  -0.770  0.00  0.00     0.096 C 
HETATM    4 Br   UNK     0      22.341  36.157   0.065  0.00  0.00    -0.096 Br
ENDBRANCH   2   3
TORSDOF 1
