REMARK  1 active torsions:
REMARK  status: ('A' for Active; 'I' for Inactive)
REMARK    1  A    between atoms: C_3  and  C_4 
ROOT
HETATM    1 Br   UNK     0      23.948  34.043  -1.885  0.00  0.00    -0.096 Br
HETATM    2  C   UNK     0      22.902  35.404  -0.970  0.00  0.00     0.096 C 
ENDROOT
BRANCH   2   3
HETATM    3  C   UNK     0      21.738  34.755  -0.264  0.00  0.00     0.096 C 
HETATM    4 Br   UNK     0      20.723  36.109   0.696  0.00  0.00    -0.096 Br
ENDBRANCH   2   3
TORSDOF 1
