REMARK  1 active torsions:
REMARK  status: ('A' for Active; 'I' for Inactive)
REMARK    1  A    between atoms: C_3  and  C_4 
ROOT
HETATM    1 Br   UNK     0      24.217  31.979  -3.547  0.00  0.00    -0.096 Br
HETATM    2  C   UNK     0      23.023  33.315  -2.790  0.00  0.00     0.096 C 
ENDROOT
BRANCH   2   3
HETATM    3  C   UNK     0      23.411  33.582  -1.357  0.00  0.00     0.096 C 
HETATM    4 Br   UNK     0      22.251  34.959  -0.617  0.00  0.00    -0.096 Br
ENDBRANCH   2   3
TORSDOF 1
