REMARK  1 active torsions:
REMARK  status: ('A' for Active; 'I' for Inactive)
REMARK    1  A    between atoms: C_3  and  C_4 
ROOT
HETATM    1 Br   UNK     0      24.223  31.922  -3.580  0.00  0.00    -0.096 Br
HETATM    2  C   UNK     0      23.044  33.276  -2.829  0.00  0.00     0.096 C 
ENDROOT
BRANCH   2   3
HETATM    3  C   UNK     0      23.436  33.546  -1.398  0.00  0.00     0.096 C 
HETATM    4 Br   UNK     0      22.292  34.939  -0.665  0.00  0.00    -0.096 Br
ENDBRANCH   2   3
TORSDOF 1
