REMARK  1 active torsions:
REMARK  status: ('A' for Active; 'I' for Inactive)
REMARK    1  A    between atoms: C_3  and  C_4 
ROOT
HETATM    1 Br   UNK     0      23.729  33.271  -2.173  0.00  0.00    -0.096 Br
HETATM    2  C   UNK     0      23.215  34.931  -1.297  0.00  0.00     0.096 C 
ENDROOT
BRANCH   2   3
HETATM    3  C   UNK     0      21.994  34.693  -0.445  0.00  0.00     0.096 C 
HETATM    4 Br   UNK     0      21.513  36.340   0.474  0.00  0.00    -0.096 Br
ENDBRANCH   2   3
TORSDOF 1
