REMARK  1 active torsions:
REMARK  status: ('A' for Active; 'I' for Inactive)
REMARK    1  A    between atoms: C_3  and  C_4 
ROOT
HETATM    1 Br   UNK     0      22.008  34.913   1.387  0.00  0.00    -0.096 Br
HETATM    2  C   UNK     0      20.722  36.189   2.097  0.00  0.00     0.096 C 
ENDROOT
BRANCH   2   3
HETATM    3  C   UNK     0      19.515  35.450   2.617  0.00  0.00     0.096 C 
HETATM    4 Br   UNK     0      18.254  36.721   3.377  0.00  0.00    -0.096 Br
ENDBRANCH   2   3
TORSDOF 1
