REMARK  1 active torsions:
REMARK  status: ('A' for Active; 'I' for Inactive)
REMARK    1  A    between atoms: C_3  and  C_4 
ROOT
HETATM    1 Br   UNK     0      21.569  35.380   1.196  0.00  0.00    -0.096 Br
HETATM    2  C   UNK     0      20.013  35.255   2.358  0.00  0.00     0.096 C 
ENDROOT
BRANCH   2   3
HETATM    3  C   UNK     0      19.617  36.635   2.819  0.00  0.00     0.096 C 
HETATM    4 Br   UNK     0      18.028  36.515   3.935  0.00  0.00    -0.096 Br
ENDBRANCH   2   3
TORSDOF 1
