REMARK  1 active torsions:
REMARK  status: ('A' for Active; 'I' for Inactive)
REMARK    1  A    between atoms: C_3  and  C_4 
ROOT
HETATM    1 Br   UNK     0      22.992  35.047  -1.895  0.00  0.00    -0.096 Br
HETATM    2  C   UNK     0      21.427  35.326  -0.773  0.00  0.00     0.096 C 
ENDROOT
BRANCH   2   3
HETATM    3  C   UNK     0      21.849  35.376   0.674  0.00  0.00     0.096 C 
HETATM    4 Br   UNK     0      20.292  35.709   1.793  0.00  0.00    -0.096 Br
ENDBRANCH   2   3
TORSDOF 1
