REMARK  1 active torsions:
REMARK  status: ('A' for Active; 'I' for Inactive)
REMARK    1  A    between atoms: C_3  and  C_4 
ROOT
HETATM    1 Br   UNK     0      21.713  35.041   1.299  0.00  0.00    -0.096 Br
HETATM    2  C   UNK     0      20.480  36.280   2.153  0.00  0.00     0.096 C 
ENDROOT
BRANCH   2   3
HETATM    3  C   UNK     0      19.337  35.509   2.766  0.00  0.00     0.096 C 
HETATM    4 Br   UNK     0      18.133  36.743   3.667  0.00  0.00    -0.096 Br
ENDBRANCH   2   3
TORSDOF 1
