REMARK  1 active torsions:
REMARK  status: ('A' for Active; 'I' for Inactive)
REMARK    1  A    between atoms: C_3  and  C_4 
ROOT
HETATM    1 Br   UNK     0      22.078  35.853  -1.779  0.00  0.00    -0.096 Br
HETATM    2  C   UNK     0      21.716  34.857  -0.148  0.00  0.00     0.096 C 
ENDROOT
BRANCH   2   3
HETATM    3  C   UNK     0      21.237  35.804   0.924  0.00  0.00     0.096 C 
HETATM    4 Br   UNK     0      20.822  34.800   2.538  0.00  0.00    -0.096 Br
ENDBRANCH   2   3
TORSDOF 1
