REMARK  1 active torsions:
REMARK  status: ('A' for Active; 'I' for Inactive)
REMARK    1  A    between atoms: C_3  and  C_4 
ROOT
HETATM    1 Br   UNK     0      23.876  34.432  -1.424  0.00  0.00    -0.096 Br
HETATM    2  C   UNK     0      22.073  35.094  -1.112  0.00  0.00     0.096 C 
ENDROOT
BRANCH   2   3
HETATM    3  C   UNK     0      21.868  35.319   0.365  0.00  0.00     0.096 C 
HETATM    4 Br   UNK     0      20.084  36.033   0.672  0.00  0.00    -0.096 Br
ENDBRANCH   2   3
TORSDOF 1
