REMARK  1 active torsions:
REMARK  status: ('A' for Active; 'I' for Inactive)
REMARK    1  A    between atoms: C_3  and  C_4 
ROOT
HETATM    1 Br   UNK     0      23.930  33.760  -2.003  0.00  0.00    -0.096 Br
HETATM    2  C   UNK     0      22.436  34.247  -0.855  0.00  0.00     0.096 C 
ENDROOT
BRANCH   2   3
HETATM    3  C   UNK     0      22.500  35.722  -0.546  0.00  0.00     0.096 C 
HETATM    4 Br   UNK     0      20.975  36.220   0.556  0.00  0.00    -0.096 Br
ENDBRANCH   2   3
TORSDOF 1
