REMARK  1 active torsions:
REMARK  status: ('A' for Active; 'I' for Inactive)
REMARK    1  A    between atoms: C_3  and  C_4 
ROOT
HETATM    1 Br   UNK     0      21.677  35.155   1.173  0.00  0.00    -0.096 Br
HETATM    2  C   UNK     0      20.606  35.697   2.704  0.00  0.00     0.096 C 
ENDROOT
BRANCH   2   3
HETATM    3  C   UNK     0      19.235  36.116   2.235  0.00  0.00     0.096 C 
HETATM    4 Br   UNK     0      18.145  36.605   3.771  0.00  0.00    -0.096 Br
ENDBRANCH   2   3
TORSDOF 1
