REMARK  1 active torsions:
REMARK  status: ('A' for Active; 'I' for Inactive)
REMARK    1  A    between atoms: C_3  and  C_4 
ROOT
HETATM    1 Br   UNK     0      23.985  34.286  -1.675  0.00  0.00    -0.096 Br
HETATM    2  C   UNK     0      22.752  35.525  -0.818  0.00  0.00     0.096 C 
ENDROOT
BRANCH   2   3
HETATM    3  C   UNK     0      21.611  34.754  -0.203  0.00  0.00     0.096 C 
HETATM    4 Br   UNK     0      20.408  35.987   0.701  0.00  0.00    -0.096 Br
ENDBRANCH   2   3
TORSDOF 1
