REMARK  1 active torsions:
REMARK  status: ('A' for Active; 'I' for Inactive)
REMARK    1  A    between atoms: C_3  and  C_4 
ROOT
HETATM    1 Br   UNK     0      24.063  34.151  -1.815  0.00  0.00    -0.096 Br
HETATM    2  C   UNK     0      22.349  34.945  -1.348  0.00  0.00     0.096 C 
ENDROOT
BRANCH   2   3
HETATM    3  C   UNK     0      22.295  35.185   0.140  0.00  0.00     0.096 C 
HETATM    4 Br   UNK     0      20.603  36.030   0.600  0.00  0.00    -0.096 Br
ENDBRANCH   2   3
TORSDOF 1
