REMARK  1 active torsions:
REMARK  status: ('A' for Active; 'I' for Inactive)
REMARK    1  A    between atoms: C_3  and  C_4 
ROOT
HETATM    1 Br   UNK     0      23.317  32.443  -2.921  0.00  0.00    -0.096 Br
HETATM    2  C   UNK     0      23.356  33.554  -1.323  0.00  0.00     0.096 C 
ENDROOT
BRANCH   2   3
HETATM    3  C   UNK     0      22.417  34.721  -1.500  0.00  0.00     0.096 C 
HETATM    4 Br   UNK     0      22.414  35.801   0.119  0.00  0.00    -0.096 Br
ENDBRANCH   2   3
TORSDOF 1
