REMARK  1 active torsions:
REMARK  status: ('A' for Active; 'I' for Inactive)
REMARK    1  A    between atoms: C_3  and  C_4 
ROOT
HETATM    1 Br   UNK     0      23.937  32.244  -3.200  0.00  0.00    -0.096 Br
HETATM    2  C   UNK     0      22.799  33.628  -2.442  0.00  0.00     0.096 C 
ENDROOT
BRANCH   2   3
HETATM    3  C   UNK     0      23.214  33.896  -1.017  0.00  0.00     0.096 C 
HETATM    4 Br   UNK     0      22.112  35.319  -0.277  0.00  0.00    -0.096 Br
ENDBRANCH   2   3
TORSDOF 1
