REMARK  1 active torsions:
REMARK  status: ('A' for Active; 'I' for Inactive)
REMARK    1  A    between atoms: C_3  and  C_4 
ROOT
HETATM    1 Br   UNK     0      22.434  34.645   0.516  0.00  0.00    -0.096 Br
HETATM    2  C   UNK     0      20.753  35.370   1.176  0.00  0.00     0.096 C 
ENDROOT
BRANCH   2   3
HETATM    3  C   UNK     0      20.840  35.562   2.669  0.00  0.00     0.096 C 
HETATM    4 Br   UNK     0      19.179  36.338   3.321  0.00  0.00    -0.096 Br
ENDBRANCH   2   3
TORSDOF 1
