REMARK  1 active torsions:
REMARK  status: ('A' for Active; 'I' for Inactive)
REMARK    1  A    between atoms: C_3  and  C_4 
ROOT
HETATM    1 Br   UNK     0      23.877  33.345  -2.123  0.00  0.00    -0.096 Br
HETATM    2  C   UNK     0      22.518  34.631  -1.587  0.00  0.00     0.096 C 
ENDROOT
BRANCH   2   3
HETATM    3  C   UNK     0      22.690  34.965  -0.127  0.00  0.00     0.096 C 
HETATM    4 Br   UNK     0      21.366  36.293   0.395  0.00  0.00    -0.096 Br
ENDBRANCH   2   3
TORSDOF 1
