REMARK  1 active torsions:
REMARK  status: ('A' for Active; 'I' for Inactive)
REMARK    1  A    between atoms: C_3  and  C_4 
ROOT
HETATM    1 Br   UNK     0      21.794  35.150  -1.430  0.00  0.00    -0.096 Br
HETATM    2  C   UNK     0      21.988  35.238   0.504  0.00  0.00     0.096 C 
ENDROOT
BRANCH   2   3
HETATM    3  C   UNK     0      20.625  35.325   1.142  0.00  0.00     0.096 C 
HETATM    4 Br   UNK     0      20.816  35.358   3.079  0.00  0.00    -0.096 Br
ENDBRANCH   2   3
TORSDOF 1
