REMARK  1 active torsions:
REMARK  status: ('A' for Active; 'I' for Inactive)
REMARK    1  A    between atoms: C_3  and  C_4 
ROOT
HETATM    1 Br   UNK     0      22.370  35.674  -1.955  0.00  0.00    -0.096 Br
HETATM    2  C   UNK     0      21.765  34.842  -0.303  0.00  0.00     0.096 C 
ENDROOT
BRANCH   2   3
HETATM    3  C   UNK     0      21.309  35.910   0.660  0.00  0.00     0.096 C 
HETATM    4 Br   UNK     0      20.652  35.076   2.290  0.00  0.00    -0.096 Br
ENDBRANCH   2   3
TORSDOF 1
