REMARK  1 active torsions:
REMARK  status: ('A' for Active; 'I' for Inactive)
REMARK    1  A    between atoms: C_3  and  C_4 
ROOT
HETATM    1 Br   UNK     0      22.030  35.169  -1.367  0.00  0.00    -0.096 Br
HETATM    2  C   UNK     0      20.881  35.252   0.201  0.00  0.00     0.096 C 
ENDROOT
BRANCH   2   3
HETATM    3  C   UNK     0      21.730  35.256   1.447  0.00  0.00     0.096 C 
HETATM    4 Br   UNK     0      20.583  35.395   3.013  0.00  0.00    -0.096 Br
ENDBRANCH   2   3
TORSDOF 1
