REMARK  1 active torsions:
REMARK  status: ('A' for Active; 'I' for Inactive)
REMARK    1  A    between atoms: C_3  and  C_4 
ROOT
HETATM    1 Br   UNK     0      23.531  33.116  -2.449  0.00  0.00    -0.096 Br
HETATM    2  C   UNK     0      22.454  33.990  -1.083  0.00  0.00     0.096 C 
ENDROOT
BRANCH   2   3
HETATM    3  C   UNK     0      22.961  35.393  -0.866  0.00  0.00     0.096 C 
HETATM    4 Br   UNK     0      21.850  36.286   0.459  0.00  0.00    -0.096 Br
ENDBRANCH   2   3
TORSDOF 1
