REMARK  1 active torsions:
REMARK  status: ('A' for Active; 'I' for Inactive)
REMARK    1  A    between atoms: C_3  and  C_4 
ROOT
HETATM    1 Br   UNK     0      22.193  35.471  -1.553  0.00  0.00    -0.096 Br
HETATM    2  C   UNK     0      21.471  35.923   0.196  0.00  0.00     0.096 C 
ENDROOT
BRANCH   2   3
HETATM    3  C   UNK     0      21.292  34.663   1.006  0.00  0.00     0.096 C 
HETATM    4 Br   UNK     0      20.622  35.120   2.775  0.00  0.00    -0.096 Br
ENDBRANCH   2   3
TORSDOF 1
