REMARK  1 active torsions:
REMARK  status: ('A' for Active; 'I' for Inactive)
REMARK    1  A    between atoms: C_3  and  C_4 
ROOT
HETATM    1 Br   UNK     0      22.895  35.164  -1.978  0.00  0.00    -0.096 Br
HETATM    2  C   UNK     0      21.837  34.729  -0.405  0.00  0.00     0.096 C 
ENDROOT
BRANCH   2   3
HETATM    3  C   UNK     0      21.467  35.999   0.320  0.00  0.00     0.096 C 
HETATM    4 Br   UNK     0      20.362  35.567   1.863  0.00  0.00    -0.096 Br
ENDBRANCH   2   3
TORSDOF 1
