REMARK  1 active torsions:
REMARK  status: ('A' for Active; 'I' for Inactive)
REMARK    1  A    between atoms: C_3  and  C_4 
ROOT
HETATM    1 Br   UNK     0      21.328  35.461   1.684  0.00  0.00    -0.096 Br
HETATM    2  C   UNK     0      19.497  35.977   2.091  0.00  0.00     0.096 C 
ENDROOT
BRANCH   2   3
HETATM    3  C   UNK     0      19.342  36.146   3.581  0.00  0.00     0.096 C 
HETATM    4 Br   UNK     0      17.525  36.715   3.984  0.00  0.00    -0.096 Br
ENDBRANCH   2   3
TORSDOF 1
