REMARK  1 active torsions:
REMARK  status: ('A' for Active; 'I' for Inactive)
REMARK    1  A    between atoms: C_3  and  C_4 
ROOT
HETATM    1 Br   UNK     0      21.813  35.159   1.378  0.00  0.00    -0.096 Br
HETATM    2  C   UNK     0      20.002  35.777   1.731  0.00  0.00     0.096 C 
ENDROOT
BRANCH   2   3
HETATM    3  C   UNK     0      19.821  35.983   3.214  0.00  0.00     0.096 C 
HETATM    4 Br   UNK     0      18.028  36.654   3.562  0.00  0.00    -0.096 Br
ENDBRANCH   2   3
TORSDOF 1
