REMARK  1 active torsions:
REMARK  status: ('A' for Active; 'I' for Inactive)
REMARK    1  A    between atoms: C_3  and  C_4 
ROOT
HETATM    1 Br   UNK     0      22.262  34.836   0.062  0.00  0.00    -0.096 Br
HETATM    2  C   UNK     0      20.698  35.368   1.092  0.00  0.00     0.096 C 
ENDROOT
BRANCH   2   3
HETATM    3  C   UNK     0      21.068  35.468   2.550  0.00  0.00     0.096 C 
HETATM    4 Br   UNK     0      19.519  36.053   3.573  0.00  0.00    -0.096 Br
ENDBRANCH   2   3
TORSDOF 1
