REMARK  1 active torsions:
REMARK  status: ('A' for Active; 'I' for Inactive)
REMARK    1  A    between atoms: C_3  and  C_4 
ROOT
HETATM    1 Br   UNK     0      24.084  34.404  -1.596  0.00  0.00    -0.096 Br
HETATM    2  C   UNK     0      22.274  35.022  -1.239  0.00  0.00     0.096 C 
ENDROOT
BRANCH   2   3
HETATM    3  C   UNK     0      22.096  35.228   0.244  0.00  0.00     0.096 C 
HETATM    4 Br   UNK     0      20.303  35.898   0.596  0.00  0.00    -0.096 Br
ENDBRANCH   2   3
TORSDOF 1
