REMARK  1 active torsions:
REMARK  status: ('A' for Active; 'I' for Inactive)
REMARK    1  A    between atoms: C_3  and  C_4 
ROOT
HETATM    1 Br   UNK     0      22.115  34.728   1.363  0.00  0.00    -0.096 Br
HETATM    2  C   UNK     0      20.885  36.084   2.024  0.00  0.00     0.096 C 
ENDROOT
BRANCH   2   3
HETATM    3  C   UNK     0      19.629  35.419   2.529  0.00  0.00     0.096 C 
HETATM    4 Br   UNK     0      18.422  36.770   3.240  0.00  0.00    -0.096 Br
ENDBRANCH   2   3
TORSDOF 1
