REMARK  1 active torsions:
REMARK  status: ('A' for Active; 'I' for Inactive)
REMARK    1  A    between atoms: C_3  and  C_4 
ROOT
HETATM    1 Br   UNK     0      23.327  32.585  -2.687  0.00  0.00    -0.096 Br
HETATM    2  C   UNK     0      23.296  33.748  -1.127  0.00  0.00     0.096 C 
ENDROOT
BRANCH   2   3
HETATM    3  C   UNK     0      22.375  34.914  -1.388  0.00  0.00     0.096 C 
HETATM    4 Br   UNK     0      22.300  36.047   0.192  0.00  0.00    -0.096 Br
ENDBRANCH   2   3
TORSDOF 1
