REMARK  1 active torsions:
REMARK  status: ('A' for Active; 'I' for Inactive)
REMARK    1  A    between atoms: C_3  and  C_4 
ROOT
HETATM    1 Br   UNK     0      23.495  32.618  -2.657  0.00  0.00    -0.096 Br
HETATM    2  C   UNK     0      22.515  33.639  -1.322  0.00  0.00     0.096 C 
ENDROOT
BRANCH   2   3
HETATM    3  C   UNK     0      23.151  34.997  -1.162  0.00  0.00     0.096 C 
HETATM    4 Br   UNK     0      22.138  36.039   0.132  0.00  0.00    -0.096 Br
ENDBRANCH   2   3
TORSDOF 1
