REMARK  1 active torsions:
REMARK  status: ('A' for Active; 'I' for Inactive)
REMARK    1  A    between atoms: C_3  and  C_4 
ROOT
HETATM    1 Br   UNK     0      23.302  34.619  -1.877  0.00  0.00    -0.096 Br
HETATM    2  C   UNK     0      22.526  35.104  -0.160  0.00  0.00     0.096 C 
ENDROOT
BRANCH   2   3
HETATM    3  C   UNK     0      21.093  35.529  -0.358  0.00  0.00     0.096 C 
HETATM    4 Br   UNK     0      20.300  35.960   1.366  0.00  0.00    -0.096 Br
ENDBRANCH   2   3
TORSDOF 1
