REMARK  1 active torsions:
REMARK  status: ('A' for Active; 'I' for Inactive)
REMARK    1  A    between atoms: C_3  and  C_4 
ROOT
HETATM    1 Br   UNK     0      24.048  34.518  -1.721  0.00  0.00    -0.096 Br
HETATM    2  C   UNK     0      22.401  34.439  -0.688  0.00  0.00     0.096 C 
ENDROOT
BRANCH   2   3
HETATM    3  C   UNK     0      21.992  35.834  -0.286  0.00  0.00     0.096 C 
HETATM    4 Br   UNK     0      20.316  35.760   0.700  0.00  0.00    -0.096 Br
ENDBRANCH   2   3
TORSDOF 1
