REMARK  1 active torsions:
REMARK  status: ('A' for Active; 'I' for Inactive)
REMARK    1  A    between atoms: C_3  and  C_4 
ROOT
HETATM    1 Br   UNK     0      22.102  35.032   1.472  0.00  0.00    -0.096 Br
HETATM    2  C   UNK     0      20.277  35.685   1.643  0.00  0.00     0.096 C 
ENDROOT
BRANCH   2   3
HETATM    3  C   UNK     0      19.963  35.926   3.098  0.00  0.00     0.096 C 
HETATM    4 Br   UNK     0      18.157  36.632   3.264  0.00  0.00    -0.096 Br
ENDBRANCH   2   3
TORSDOF 1
