REMARK  1 active torsions:
REMARK  status: ('A' for Active; 'I' for Inactive)
REMARK    1  A    between atoms: C_3  and  C_4 
ROOT
HETATM    1 Br   UNK     0      22.080  35.143   1.342  0.00  0.00    -0.096 Br
HETATM    2  C   UNK     0      20.341  35.113   2.215  0.00  0.00     0.096 C 
ENDROOT
BRANCH   2   3
HETATM    3  C   UNK     0      19.921  36.522   2.548  0.00  0.00     0.096 C 
HETATM    4 Br   UNK     0      18.158  36.496   3.372  0.00  0.00    -0.096 Br
ENDBRANCH   2   3
TORSDOF 1
