REMARK  1 active torsions:
REMARK  status: ('A' for Active; 'I' for Inactive)
REMARK    1  A    between atoms: C_3  and  C_4 
ROOT
HETATM    1 Br   UNK     0      22.108  34.927  -0.592  0.00  0.00    -0.096 Br
HETATM    2  C   UNK     0      21.376  35.849   0.957  0.00  0.00     0.096 C 
ENDROOT
BRANCH   2   3
HETATM    3  C   UNK     0      20.801  34.839   1.918  0.00  0.00     0.096 C 
HETATM    4 Br   UNK     0      20.119  35.757   3.492  0.00  0.00    -0.096 Br
ENDBRANCH   2   3
TORSDOF 1
