REMARK  1 active torsions:
REMARK  status: ('A' for Active; 'I' for Inactive)
REMARK    1  A    between atoms: C_3  and  C_4 
ROOT
HETATM    1 Br   UNK     0      23.472  34.617  -1.701  0.00  0.00    -0.096 Br
HETATM    2  C   UNK     0      21.755  35.212  -1.004  0.00  0.00     0.096 C 
ENDROOT
BRANCH   2   3
HETATM    3  C   UNK     0      21.847  35.368   0.493  0.00  0.00     0.096 C 
HETATM    4 Br   UNK     0      20.147  36.015   1.183  0.00  0.00    -0.096 Br
ENDBRANCH   2   3
TORSDOF 1
