REMARK  1 active torsions:
REMARK  status: ('A' for Active; 'I' for Inactive)
REMARK    1  A    between atoms: C_3  and  C_4 
ROOT
HETATM    1 Br   UNK     0      22.141  34.720   0.015  0.00  0.00    -0.096 Br
HETATM    2  C   UNK     0      21.294  35.857   1.348  0.00  0.00     0.096 C 
ENDROOT
BRANCH   2   3
HETATM    3  C   UNK     0      20.458  35.009   2.274  0.00  0.00     0.096 C 
HETATM    4 Br   UNK     0      19.654  36.139   3.639  0.00  0.00    -0.096 Br
ENDBRANCH   2   3
TORSDOF 1
