REMARK  1 active torsions:
REMARK  status: ('A' for Active; 'I' for Inactive)
REMARK    1  A    between atoms: C_3  and  C_4 
ROOT
HETATM    1 Br   UNK     0      21.413  35.382   1.348  0.00  0.00    -0.096 Br
HETATM    2  C   UNK     0      20.341  35.839   2.907  0.00  0.00     0.096 C 
ENDROOT
BRANCH   2   3
HETATM    3  C   UNK     0      18.942  36.193   2.468  0.00  0.00     0.096 C 
HETATM    4 Br   UNK     0      17.855  36.597   4.031  0.00  0.00    -0.096 Br
ENDBRANCH   2   3
TORSDOF 1
