REMARK  1 active torsions:
REMARK  status: ('A' for Active; 'I' for Inactive)
REMARK    1  A    between atoms: C_3  and  C_4 
ROOT
HETATM    1 Br   UNK     0      22.111  34.804  -0.311  0.00  0.00    -0.096 Br
HETATM    2  C   UNK     0      21.344  35.847   1.142  0.00  0.00     0.096 C 
ENDROOT
BRANCH   2   3
HETATM    3  C   UNK     0      20.640  34.925   2.105  0.00  0.00     0.096 C 
HETATM    4 Br   UNK     0      19.920  35.962   3.586  0.00  0.00    -0.096 Br
ENDBRANCH   2   3
TORSDOF 1
