REMARK  1 active torsions:
REMARK  status: ('A' for Active; 'I' for Inactive)
REMARK    1  A    between atoms: C_3  and  C_4 
ROOT
HETATM    1 Br   UNK     0      21.189  35.454   1.482  0.00  0.00    -0.096 Br
HETATM    2  C   UNK     0      20.128  35.911   3.048  0.00  0.00     0.096 C 
ENDROOT
BRANCH   2   3
HETATM    3  C   UNK     0      18.726  36.266   2.619  0.00  0.00     0.096 C 
HETATM    4 Br   UNK     0      17.650  36.669   4.190  0.00  0.00    -0.096 Br
ENDBRANCH   2   3
TORSDOF 1
