REMARK  1 active torsions:
REMARK  status: ('A' for Active; 'I' for Inactive)
REMARK    1  A    between atoms: C_3  and  C_4 
ROOT
HETATM    1 Br   UNK     0      23.279  32.616  -2.377  0.00  0.00    -0.096 Br
HETATM    2  C   UNK     0      23.328  34.407  -1.618  0.00  0.00     0.096 C 
ENDROOT
BRANCH   2   3
HETATM    3  C   UNK     0      22.171  34.582  -0.667  0.00  0.00     0.096 C 
HETATM    4 Br   UNK     0      22.252  36.354   0.134  0.00  0.00    -0.096 Br
ENDBRANCH   2   3
TORSDOF 1
