REMARK  1 active torsions:
REMARK  status: ('A' for Active; 'I' for Inactive)
REMARK    1  A    between atoms: C_3  and  C_4 
ROOT
HETATM    1 Br   UNK     0      24.042  31.977  -3.736  0.00  0.00    -0.096 Br
HETATM    2  C   UNK     0      23.828  32.942  -2.060  0.00  0.00     0.096 C 
ENDROOT
BRANCH   2   3
HETATM    3  C   UNK     0      22.687  33.919  -2.185  0.00  0.00     0.096 C 
HETATM    4 Br   UNK     0      22.437  34.845  -0.491  0.00  0.00    -0.096 Br
ENDBRANCH   2   3
TORSDOF 1
