REMARK  1 active torsions:
REMARK  status: ('A' for Active; 'I' for Inactive)
REMARK    1  A    between atoms: C_3  and  C_4 
ROOT
HETATM    1 Br   UNK     0      21.466  35.262   1.124  0.00  0.00    -0.096 Br
HETATM    2  C   UNK     0      20.517  35.758   2.748  0.00  0.00     0.096 C 
ENDROOT
BRANCH   2   3
HETATM    3  C   UNK     0      19.105  36.162   2.403  0.00  0.00     0.096 C 
HETATM    4 Br   UNK     0      18.140  36.604   4.033  0.00  0.00    -0.096 Br
ENDBRANCH   2   3
TORSDOF 1
