REMARK  1 active torsions:
REMARK  status: ('A' for Active; 'I' for Inactive)
REMARK    1  A    between atoms: C_3  and  C_4 
ROOT
HETATM    1 Br   UNK     0      22.225  35.766  -1.751  0.00  0.00    -0.096 Br
HETATM    2  C   UNK     0      21.062  35.327  -0.255  0.00  0.00     0.096 C 
ENDROOT
BRANCH   2   3
HETATM    3  C   UNK     0      21.869  35.303   1.019  0.00  0.00     0.096 C 
HETATM    4 Br   UNK     0      20.696  34.918   2.523  0.00  0.00    -0.096 Br
ENDBRANCH   2   3
TORSDOF 1
