REMARK  1 active torsions:
REMARK  status: ('A' for Active; 'I' for Inactive)
REMARK    1  A    between atoms: C_3  and  C_4 
ROOT
HETATM    1 Br   UNK     0      22.337  34.708   0.786  0.00  0.00    -0.096 Br
HETATM    2  C   UNK     0      20.622  35.452   1.328  0.00  0.00     0.096 C 
ENDROOT
BRANCH   2   3
HETATM    3  C   UNK     0      20.616  35.667   2.821  0.00  0.00     0.096 C 
HETATM    4 Br   UNK     0      18.922  36.462   3.355  0.00  0.00    -0.096 Br
ENDBRANCH   2   3
TORSDOF 1
