REMARK  1 active torsions:
REMARK  status: ('A' for Active; 'I' for Inactive)
REMARK    1  A    between atoms: C_3  and  C_4 
ROOT
HETATM    1 Br   UNK     0      22.219  35.193  -0.823  0.00  0.00    -0.096 Br
HETATM    2  C   UNK     0      20.861  35.308   0.567  0.00  0.00     0.096 C 
ENDROOT
BRANCH   2   3
HETATM    3  C   UNK     0      21.527  35.322   1.920  0.00  0.00     0.096 C 
HETATM    4 Br   UNK     0      20.173  35.493   3.307  0.00  0.00    -0.096 Br
ENDBRANCH   2   3
TORSDOF 1
