REMARK  1 active torsions:
REMARK  status: ('A' for Active; 'I' for Inactive)
REMARK    1  A    between atoms: C_3  and  C_4 
ROOT
HETATM    1 Br   UNK     0      22.111  35.062  -0.860  0.00  0.00    -0.096 Br
HETATM    2  C   UNK     0      21.411  35.871   0.765  0.00  0.00     0.096 C 
ENDROOT
BRANCH   2   3
HETATM    3  C   UNK     0      20.953  34.788   1.709  0.00  0.00     0.096 C 
HETATM    4 Br   UNK     0      20.304  35.595   3.357  0.00  0.00    -0.096 Br
ENDBRANCH   2   3
TORSDOF 1
