REMARK  1 active torsions:
REMARK  status: ('A' for Active; 'I' for Inactive)
REMARK    1  A    between atoms: C_3  and  C_4 
ROOT
HETATM    1 Br   UNK     0      20.974  35.399   2.007  0.00  0.00    -0.096 Br
HETATM    2  C   UNK     0      19.781  36.714   2.805  0.00  0.00     0.096 C 
ENDROOT
BRANCH   2   3
HETATM    3  C   UNK     0      18.747  36.009   3.646  0.00  0.00     0.096 C 
HETATM    4 Br   UNK     0      17.571  37.325   4.465  0.00  0.00    -0.096 Br
ENDBRANCH   2   3
TORSDOF 1
