REMARK  1 active torsions:
REMARK  status: ('A' for Active; 'I' for Inactive)
REMARK    1  A    between atoms: C_3  and  C_4 
ROOT
HETATM    1 Br   UNK     0      21.209  35.611   1.805  0.00  0.00    -0.096 Br
HETATM    2  C   UNK     0      20.067  36.807   2.832  0.00  0.00     0.096 C 
ENDROOT
BRANCH   2   3
HETATM    3  C   UNK     0      18.978  36.009   3.503  0.00  0.00     0.096 C 
HETATM    4 Br   UNK     0      17.847  37.203   4.544  0.00  0.00    -0.096 Br
ENDBRANCH   2   3
TORSDOF 1
