REMARK  1 active torsions:
REMARK  status: ('A' for Active; 'I' for Inactive)
REMARK    1  A    between atoms: C_3  and  C_4 
ROOT
HETATM    1 Br   UNK     0      18.237  37.267   5.081  0.00  0.00    -0.096 Br
HETATM    2  C   UNK     0      19.046  35.893   3.963  0.00  0.00     0.096 C 
ENDROOT
BRANCH   2   3
HETATM    3  C   UNK     0      19.013  36.335   2.522  0.00  0.00     0.096 C 
HETATM    4 Br   UNK     0      17.241  37.015   2.093  0.00  0.00    -0.096 Br
ENDBRANCH   2   3
TORSDOF 1
