MODEL 1
REMARK VINA RESULT:    -1.788      0.000      0.000
REMARK INTER + INTRA:          -1.892
REMARK INTER:                  -1.892
REMARK INTRA:                   0.000
REMARK UNBOUND:                 0.000
REMARK  1 active torsions:
REMARK  status: ('A' for Active; 'I' for Inactive)
REMARK    1  A    between atoms: C_3  and  C_4 
ROOT
HETATM    1 Br   UNK     0      23.247  31.906  -4.213  0.00  0.00    -0.096 Br
HETATM    2  C   UNK     0      24.001  32.788  -2.651  0.00  0.00     0.096 C 
ENDROOT
BRANCH   2   3
HETATM    3  C   UNK     0      25.428  32.339  -2.460  0.00  0.00     0.096 C 
HETATM    4 Br   UNK     0      26.635  33.717  -3.116  0.00  0.00    -0.096 Br
ENDBRANCH   2   3
TORSDOF 1
ENDMDL
