MODEL 1
REMARK VINA RESULT:    -1.783      0.000      0.000
REMARK INTER + INTRA:          -1.887
REMARK INTER:                  -1.887
REMARK INTRA:                   0.000
REMARK UNBOUND:                 0.000
REMARK  1 active torsions:
REMARK  status: ('A' for Active; 'I' for Inactive)
REMARK    1  A    between atoms: C_3  and  C_4 
ROOT
HETATM    1 Br   UNK     0      23.097  31.988  -4.125  0.00  0.00    -0.096 Br
HETATM    2  C   UNK     0      23.998  32.769  -2.587  0.00  0.00     0.096 C 
ENDROOT
BRANCH   2   3
HETATM    3  C   UNK     0      25.437  32.316  -2.564  0.00  0.00     0.096 C 
HETATM    4 Br   UNK     0      26.585  33.774  -3.149  0.00  0.00    -0.096 Br
ENDBRANCH   2   3
TORSDOF 1
ENDMDL
