MODEL 1
REMARK VINA RESULT:    49.861      0.000      0.000
REMARK INTER + INTRA:          52.775
REMARK INTER:                  52.775
REMARK INTRA:                   0.000
REMARK UNBOUND:                 0.000
REMARK  1 active torsions:
REMARK  status: ('A' for Active; 'I' for Inactive)
REMARK    1  A    between atoms: C_3  and  C_4 
ROOT
HETATM    1 Br   UNK     0      17.399  36.889   2.126  0.00  0.00    -0.096 Br
HETATM    2  C   UNK     0      17.746  36.927   4.041  0.00  0.00     0.096 C 
ENDROOT
BRANCH   2   3
HETATM    3  C   UNK     0      19.186  36.564   4.298  0.00  0.00     0.096 C 
HETATM    4 Br   UNK     0      20.061  36.145   2.611  0.00  0.00    -0.096 Br
ENDBRANCH   2   3
TORSDOF 1
ENDMDL
