MODEL 1
REMARK VINA RESULT:    -2.802      0.000      0.000
REMARK INTER + INTRA:          -2.966
REMARK INTER:                  -2.966
REMARK INTRA:                   0.000
REMARK UNBOUND:                 0.000
REMARK  1 active torsions:
REMARK  status: ('A' for Active; 'I' for Inactive)
REMARK    1  A    between atoms: C_3  and  C_4 
ROOT
HETATM    1 Br   UNK     0      19.731  37.100   5.180  0.00  0.00    -0.096 Br
HETATM    2  C   UNK     0      18.145  36.631   4.154  0.00  0.00     0.096 C 
ENDROOT
BRANCH   2   3
HETATM    3  C   UNK     0      18.508  36.511   2.695  0.00  0.00     0.096 C 
HETATM    4 Br   UNK     0      20.421  36.196   2.526  0.00  0.00    -0.096 Br
ENDBRANCH   2   3
TORSDOF 1
ENDMDL
