MODEL 1
REMARK VINA RESULT:    -2.819      0.000      0.000
REMARK INTER + INTRA:          -2.984
REMARK INTER:                  -2.984
REMARK INTRA:                   0.000
REMARK UNBOUND:                 0.000
REMARK  1 active torsions:
REMARK  status: ('A' for Active; 'I' for Inactive)
REMARK    1  A    between atoms: C_3  and  C_4 
ROOT
HETATM    1 Br   UNK     0      17.375  36.906   2.278  0.00  0.00    -0.096 Br
HETATM    2  C   UNK     0      17.784  36.964   4.180  0.00  0.00     0.096 C 
ENDROOT
BRANCH   2   3
HETATM    3  C   UNK     0      19.241  36.638   4.391  0.00  0.00     0.096 C 
HETATM    4 Br   UNK     0      20.039  36.111   2.696  0.00  0.00    -0.096 Br
ENDBRANCH   2   3
TORSDOF 1
ENDMDL
