MODEL 1
REMARK VINA RESULT:    -2.858      0.000      0.000
REMARK INTER + INTRA:          -3.025
REMARK INTER:                  -3.025
REMARK INTRA:                   0.000
REMARK UNBOUND:                 0.000
REMARK  1 active torsions:
REMARK  status: ('A' for Active; 'I' for Inactive)
REMARK    1  A    between atoms: C_3  and  C_4 
ROOT
HETATM    1 Br   UNK     0      21.092  36.458   1.915  0.00  0.00    -0.096 Br
HETATM    2  C   UNK     0      19.545  35.693   2.813  0.00  0.00     0.096 C 
ENDROOT
BRANCH   2   3
HETATM    3  C   UNK     0      19.222  36.507   4.040  0.00  0.00     0.096 C 
HETATM    4 Br   UNK     0      17.356  37.055   3.983  0.00  0.00    -0.096 Br
ENDBRANCH   2   3
TORSDOF 1
ENDMDL
