MODEL 1
REMARK VINA RESULT:    -2.831      0.000      0.000
REMARK INTER + INTRA:          -2.997
REMARK INTER:                  -2.997
REMARK INTRA:                   0.000
REMARK UNBOUND:                 0.000
REMARK  1 active torsions:
REMARK  status: ('A' for Active; 'I' for Inactive)
REMARK    1  A    between atoms: C_3  and  C_4 
ROOT
HETATM    1 Br   UNK     0      19.265  37.005   5.198  0.00  0.00    -0.096 Br
HETATM    2  C   UNK     0      17.703  36.940   4.039  0.00  0.00     0.096 C 
ENDROOT
BRANCH   2   3
HETATM    3  C   UNK     0      18.136  36.615   2.631  0.00  0.00     0.096 C 
HETATM    4 Br   UNK     0      20.011  36.097   2.632  0.00  0.00    -0.096 Br
ENDBRANCH   2   3
TORSDOF 1
ENDMDL
