MODEL 1
REMARK VINA RESULT:    -1.803      0.000      0.000
REMARK INTER + INTRA:          -1.909
REMARK INTER:                  -1.909
REMARK INTRA:                   0.000
REMARK UNBOUND:                 0.000
REMARK  1 active torsions:
REMARK  status: ('A' for Active; 'I' for Inactive)
REMARK    1  A    between atoms: C_3  and  C_4 
ROOT
HETATM    1 Br   UNK     0      23.130  31.940  -4.127  0.00  0.00    -0.096 Br
HETATM    2  C   UNK     0      24.024  32.836  -2.649  0.00  0.00     0.096 C 
ENDROOT
BRANCH   2   3
HETATM    3  C   UNK     0      25.450  32.353  -2.557  0.00  0.00     0.096 C 
HETATM    4 Br   UNK     0      26.655  33.783  -3.097  0.00  0.00    -0.096 Br
ENDBRANCH   2   3
TORSDOF 1
ENDMDL
