MODEL 1
REMARK VINA RESULT:    -1.800      0.000      0.000
REMARK INTER + INTRA:          -1.906
REMARK INTER:                  -1.906
REMARK INTRA:                   0.000
REMARK UNBOUND:                 0.000
REMARK  1 active torsions:
REMARK  status: ('A' for Active; 'I' for Inactive)
REMARK    1  A    between atoms: C_3  and  C_4 
ROOT
HETATM    1 Br   UNK     0      23.108  31.958  -4.108  0.00  0.00    -0.096 Br
HETATM    2  C   UNK     0      24.043  32.858  -2.659  0.00  0.00     0.096 C 
ENDROOT
BRANCH   2   3
HETATM    3  C   UNK     0      25.464  32.357  -2.590  0.00  0.00     0.096 C 
HETATM    4 Br   UNK     0      26.682  33.791  -3.089  0.00  0.00    -0.096 Br
ENDBRANCH   2   3
TORSDOF 1
ENDMDL
