MODEL 1
REMARK VINA RESULT:    -1.803      0.000      0.000
REMARK INTER + INTRA:          -1.908
REMARK INTER:                  -1.908
REMARK INTRA:                   0.000
REMARK UNBOUND:                 0.000
REMARK  1 active torsions:
REMARK  status: ('A' for Active; 'I' for Inactive)
REMARK    1  A    between atoms: C_3  and  C_4 
ROOT
HETATM    1 Br   UNK     0      23.139  31.936  -4.140  0.00  0.00    -0.096 Br
HETATM    2  C   UNK     0      24.031  32.829  -2.659  0.00  0.00     0.096 C 
ENDROOT
BRANCH   2   3
HETATM    3  C   UNK     0      25.455  32.341  -2.563  0.00  0.00     0.096 C 
HETATM    4 Br   UNK     0      26.667  33.767  -3.097  0.00  0.00    -0.096 Br
ENDBRANCH   2   3
TORSDOF 1
ENDMDL
