MODEL 1
REMARK VINA RESULT:    -2.820      0.000      0.000
REMARK INTER + INTRA:          -2.985
REMARK INTER:                  -2.985
REMARK INTRA:                   0.000
REMARK UNBOUND:                 0.000
REMARK  1 active torsions:
REMARK  status: ('A' for Active; 'I' for Inactive)
REMARK    1  A    between atoms: C_3  and  C_4 
ROOT
HETATM    1 Br   UNK     0      17.368  36.905   2.265  0.00  0.00    -0.096 Br
HETATM    2  C   UNK     0      17.757  36.991   4.170  0.00  0.00     0.096 C 
ENDROOT
BRANCH   2   3
HETATM    3  C   UNK     0      19.202  36.629   4.405  0.00  0.00     0.096 C 
HETATM    4 Br   UNK     0      20.025  36.118   2.717  0.00  0.00    -0.096 Br
ENDBRANCH   2   3
TORSDOF 1
ENDMDL
