REMARK  1 active torsions:
REMARK  status: ('A' for Active; 'I' for Inactive)
REMARK    1  A    between atoms: C_3  and  C_4 
ROOT
HETATM    1 Br   UNK     0      23.924  33.096  -2.576  0.00  0.00    -0.096 Br
HETATM    2  C   UNK     0      23.370  34.622  -1.507  0.00  0.00     0.096 C 
ENDROOT
BRANCH   2   3
HETATM    3  C   UNK     0      21.979  34.383  -0.963  0.00  0.00     0.096 C 
HETATM    4 Br   UNK     0      21.633  35.618   0.497  0.00  0.00    -0.096 Br
ENDBRANCH   2   3
TORSDOF 1
