REMARK  1 active torsions:
REMARK  status: ('A' for Active; 'I' for Inactive)
REMARK    1  A    between atoms: C_3  and  C_4 
ROOT
HETATM    1 Br   UNK     0      23.760  33.390  -2.352  0.00  0.00    -0.096 Br
HETATM    2  C   UNK     0      22.912  34.921  -1.508  0.00  0.00     0.096 C 
ENDROOT
BRANCH   2   3
HETATM    3  C   UNK     0      21.938  34.445  -0.451  0.00  0.00     0.096 C 
HETATM    4 Br   UNK     0      21.455  35.930   0.705  0.00  0.00    -0.096 Br
ENDBRANCH   2   3
TORSDOF 1
