REMARK  1 active torsions:
REMARK  status: ('A' for Active; 'I' for Inactive)
REMARK    1  A    between atoms: C_3  and  C_4 
ROOT
HETATM    1 Br   UNK     0      23.883  33.346  -2.435  0.00  0.00    -0.096 Br
HETATM    2  C   UNK     0      23.277  34.879  -1.408  0.00  0.00     0.096 C 
ENDROOT
BRANCH   2   3
HETATM    3  C   UNK     0      21.918  34.584  -0.808  0.00  0.00     0.096 C 
HETATM    4 Br   UNK     0      21.570  35.820   0.650  0.00  0.00    -0.096 Br
ENDBRANCH   2   3
TORSDOF 1
