REMARK  1 active torsions:
REMARK  status: ('A' for Active; 'I' for Inactive)
REMARK    1  A    between atoms: C_3  and  C_4 
ROOT
HETATM    1 Br   UNK     0      24.078  32.438  -3.314  0.00  0.00    -0.096 Br
HETATM    2  C   UNK     0      23.855  33.910  -2.063  0.00  0.00     0.096 C 
ENDROOT
BRANCH   2   3
HETATM    3  C   UNK     0      22.428  33.939  -1.563  0.00  0.00     0.096 C 
HETATM    4 Br   UNK     0      22.182  35.467  -0.388  0.00  0.00    -0.096 Br
ENDBRANCH   2   3
TORSDOF 1
