REMARK  1 active torsions:
REMARK  status: ('A' for Active; 'I' for Inactive)
REMARK    1  A    between atoms: C_3  and  C_4 
ROOT
HETATM    1 Br   UNK     0      23.945  32.868  -2.700  0.00  0.00    -0.096 Br
HETATM    2  C   UNK     0      23.498  34.427  -1.627  0.00  0.00     0.096 C 
ENDROOT
BRANCH   2   3
HETATM    3  C   UNK     0      22.080  34.300  -1.113  0.00  0.00     0.096 C 
HETATM    4 Br   UNK     0      21.764  35.646   0.252  0.00  0.00    -0.096 Br
ENDBRANCH   2   3
TORSDOF 1
