REMARK  1 active torsions:
REMARK  status: ('A' for Active; 'I' for Inactive)
REMARK    1  A    between atoms: C_3  and  C_4 
ROOT
HETATM    1 Br   UNK     0      25.108  31.425  -3.790  0.00  0.00    -0.096 Br
HETATM    2  C   UNK     0      24.712  33.033  -2.771  0.00  0.00     0.096 C 
ENDROOT
BRANCH   2   3
HETATM    3  C   UNK     0      23.237  33.078  -2.451  0.00  0.00     0.096 C 
HETATM    4 Br   UNK     0      22.824  34.737  -1.525  0.00  0.00    -0.096 Br
ENDBRANCH   2   3
TORSDOF 1
