REMARK  1 active torsions:
REMARK  status: ('A' for Active; 'I' for Inactive)
REMARK    1  A    between atoms: C_3  and  C_4 
ROOT
HETATM    1 Br   UNK     0      24.970  31.643  -4.023  0.00  0.00    -0.096 Br
HETATM    2  C   UNK     0      24.740  33.044  -2.695  0.00  0.00     0.096 C 
ENDROOT
BRANCH   2   3
HETATM    3  C   UNK     0      23.315  33.034  -2.190  0.00  0.00     0.096 C 
HETATM    4 Br   UNK     0      22.908  34.743  -1.360  0.00  0.00    -0.096 Br
ENDBRANCH   2   3
TORSDOF 1
