REMARK  1 active torsions:
REMARK  status: ('A' for Active; 'I' for Inactive)
REMARK    1  A    between atoms: C_3  and  C_4 
ROOT
HETATM    1 Br   UNK     0      25.593  32.835  -1.870  0.00  0.00    -0.096 Br
HETATM    2  C   UNK     0      23.927  32.985  -2.863  0.00  0.00     0.096 C 
ENDROOT
BRANCH   2   3
HETATM    3  C   UNK     0      23.846  31.875  -3.883  0.00  0.00     0.096 C 
HETATM    4 Br   UNK     0      22.179  32.024  -4.873  0.00  0.00    -0.096 Br
ENDBRANCH   2   3
TORSDOF 1
