REMARK  1 active torsions:
REMARK  status: ('A' for Active; 'I' for Inactive)
REMARK    1  A    between atoms: C_3  and  C_4 
ROOT
HETATM    1 Br   UNK     0      23.902  32.631  -2.909  0.00  0.00    -0.096 Br
HETATM    2  C   UNK     0      23.568  34.179  -1.779  0.00  0.00     0.096 C 
ENDROOT
BRANCH   2   3
HETATM    3  C   UNK     0      22.136  34.151  -1.292  0.00  0.00     0.096 C 
HETATM    4 Br   UNK     0      21.840  35.629  -0.066  0.00  0.00    -0.096 Br
ENDBRANCH   2   3
TORSDOF 1
