REMARK  1 active torsions:
REMARK  status: ('A' for Active; 'I' for Inactive)
REMARK    1  A    between atoms: C_3  and  C_4 
ROOT
HETATM    1 Br   UNK     0      24.262  32.401  -3.101  0.00  0.00    -0.096 Br
HETATM    2  C   UNK     0      23.759  33.835  -1.889  0.00  0.00     0.096 C 
ENDROOT
BRANCH   2   3
HETATM    3  C   UNK     0      22.344  33.618  -1.407  0.00  0.00     0.096 C 
HETATM    4 Br   UNK     0      21.698  35.232  -0.537  0.00  0.00    -0.096 Br
ENDBRANCH   2   3
TORSDOF 1
