REMARK  1 active torsions:
REMARK  status: ('A' for Active; 'I' for Inactive)
REMARK    1  A    between atoms: C_3  and  C_4 
ROOT
HETATM    1 Br   UNK     0      23.791  33.552  -2.382  0.00  0.00    -0.096 Br
HETATM    2  C   UNK     0      23.111  35.002  -1.284  0.00  0.00     0.096 C 
ENDROOT
BRANCH   2   3
HETATM    3  C   UNK     0      21.843  34.559  -0.584  0.00  0.00     0.096 C 
HETATM    4 Br   UNK     0      21.540  35.673   0.979  0.00  0.00    -0.096 Br
ENDBRANCH   2   3
TORSDOF 1
