REMARK  1 active torsions:
REMARK  status: ('A' for Active; 'I' for Inactive)
REMARK    1  A    between atoms: C_3  and  C_4 
ROOT
HETATM    1 Br   UNK     0      23.904  32.857  -2.711  0.00  0.00    -0.096 Br
HETATM    2  C   UNK     0      23.500  34.406  -1.606  0.00  0.00     0.096 C 
ENDROOT
BRANCH   2   3
HETATM    3  C   UNK     0      22.084  34.301  -1.084  0.00  0.00     0.096 C 
HETATM    4 Br   UNK     0      21.779  35.687   0.243  0.00  0.00    -0.096 Br
ENDBRANCH   2   3
TORSDOF 1
