REMARK  1 active torsions:
REMARK  status: ('A' for Active; 'I' for Inactive)
REMARK    1  A    between atoms: C_3  and  C_4 
ROOT
HETATM    1 Br   UNK     0      23.861  32.627  -2.908  0.00  0.00    -0.096 Br
HETATM    2  C   UNK     0      23.575  34.141  -1.721  0.00  0.00     0.096 C 
ENDROOT
BRANCH   2   3
HETATM    3  C   UNK     0      22.147  34.133  -1.224  0.00  0.00     0.096 C 
HETATM    4 Br   UNK     0      21.870  35.632  -0.019  0.00  0.00    -0.096 Br
ENDBRANCH   2   3
TORSDOF 1
