REMARK  1 active torsions:
REMARK  status: ('A' for Active; 'I' for Inactive)
REMARK    1  A    between atoms: C_3  and  C_4 
ROOT
HETATM    1 Br   UNK     0      23.865  32.807  -2.650  0.00  0.00    -0.096 Br
HETATM    2  C   UNK     0      23.531  34.355  -1.520  0.00  0.00     0.096 C 
ENDROOT
BRANCH   2   3
HETATM    3  C   UNK     0      22.099  34.327  -1.033  0.00  0.00     0.096 C 
HETATM    4 Br   UNK     0      21.803  35.805   0.193  0.00  0.00    -0.096 Br
ENDBRANCH   2   3
TORSDOF 1
