REMARK  1 active torsions:
REMARK  status: ('A' for Active; 'I' for Inactive)
REMARK    1  A    between atoms: C_3  and  C_4 
ROOT
HETATM    1 Br   UNK     0      25.494  33.394  -1.342  0.00  0.00    -0.096 Br
HETATM    2  C   UNK     0      23.856  33.487  -2.388  0.00  0.00     0.096 C 
ENDROOT
BRANCH   2   3
HETATM    3  C   UNK     0      23.733  32.248  -3.241  0.00  0.00     0.096 C 
HETATM    4 Br   UNK     0      22.132  32.373  -4.338  0.00  0.00    -0.096 Br
ENDBRANCH   2   3
TORSDOF 1
