REMARK  1 active torsions:
REMARK  status: ('A' for Active; 'I' for Inactive)
REMARK    1  A    between atoms: C_3  and  C_4 
ROOT
HETATM    1 Br   UNK     0      24.257  31.985  -3.052  0.00  0.00    -0.096 Br
HETATM    2  C   UNK     0      23.861  33.593  -2.033  0.00  0.00     0.096 C 
ENDROOT
BRANCH   2   3
HETATM    3  C   UNK     0      22.386  33.638  -1.713  0.00  0.00     0.096 C 
HETATM    4 Br   UNK     0      21.973  35.297  -0.787  0.00  0.00    -0.096 Br
ENDBRANCH   2   3
TORSDOF 1
