REMARK  1 active torsions:
REMARK  status: ('A' for Active; 'I' for Inactive)
REMARK    1  A    between atoms: C_3  and  C_4 
ROOT
HETATM    1 Br   UNK     0      23.881  33.048  -2.535  0.00  0.00    -0.096 Br
HETATM    2  C   UNK     0      23.434  34.607  -1.462  0.00  0.00     0.096 C 
ENDROOT
BRANCH   2   3
HETATM    3  C   UNK     0      22.016  34.480  -0.948  0.00  0.00     0.096 C 
HETATM    4 Br   UNK     0      21.700  35.826   0.417  0.00  0.00    -0.096 Br
ENDBRANCH   2   3
TORSDOF 1
