REMARK  1 active torsions:
REMARK  status: ('A' for Active; 'I' for Inactive)
REMARK    1  A    between atoms: C_3  and  C_4 
ROOT
HETATM    1 Br   UNK     0      24.326  31.890  -3.167  0.00  0.00    -0.096 Br
HETATM    2  C   UNK     0      24.018  33.550  -2.204  0.00  0.00     0.096 C 
ENDROOT
BRANCH   2   3
HETATM    3  C   UNK     0      22.584  33.604  -1.734  0.00  0.00     0.096 C 
HETATM    4 Br   UNK     0      22.208  35.362  -0.994  0.00  0.00    -0.096 Br
ENDBRANCH   2   3
TORSDOF 1
