REMARK  1 active torsions:
REMARK  status: ('A' for Active; 'I' for Inactive)
REMARK    1  A    between atoms: C_3  and  C_4 
ROOT
HETATM    1 Br   UNK     0      23.611  33.736  -2.222  0.00  0.00    -0.096 Br
HETATM    2  C   UNK     0      22.697  35.212  -1.349  0.00  0.00     0.096 C 
ENDROOT
BRANCH   2   3
HETATM    3  C   UNK     0      21.790  34.678  -0.262  0.00  0.00     0.096 C 
HETATM    4 Br   UNK     0      21.431  36.081   1.034  0.00  0.00    -0.096 Br
ENDBRANCH   2   3
TORSDOF 1
