REMARK  1 active torsions:
REMARK  status: ('A' for Active; 'I' for Inactive)
REMARK    1  A    between atoms: C_3  and  C_4 
ROOT
HETATM    1 Br   UNK     0      23.834  33.497  -2.295  0.00  0.00    -0.096 Br
HETATM    2  C   UNK     0      23.228  35.030  -1.268  0.00  0.00     0.096 C 
ENDROOT
BRANCH   2   3
HETATM    3  C   UNK     0      21.869  34.735  -0.668  0.00  0.00     0.096 C 
HETATM    4 Br   UNK     0      21.521  35.971   0.790  0.00  0.00    -0.096 Br
ENDBRANCH   2   3
TORSDOF 1
