REMARK  1 active torsions:
REMARK  status: ('A' for Active; 'I' for Inactive)
REMARK    1  A    between atoms: C_3  and  C_4 
ROOT
HETATM    1 Br   UNK     0      23.922  32.488  -3.010  0.00  0.00    -0.096 Br
HETATM    2  C   UNK     0      23.692  33.889  -1.682  0.00  0.00     0.096 C 
ENDROOT
BRANCH   2   3
HETATM    3  C   UNK     0      22.267  33.879  -1.177  0.00  0.00     0.096 C 
HETATM    4 Br   UNK     0      21.860  35.588  -0.347  0.00  0.00    -0.096 Br
ENDBRANCH   2   3
TORSDOF 1
