REMARK  1 active torsions:
REMARK  status: ('A' for Active; 'I' for Inactive)
REMARK    1  A    between atoms: C_3  and  C_4 
ROOT
HETATM    1 Br   UNK     0      24.048  32.435  -3.308  0.00  0.00    -0.096 Br
HETATM    2  C   UNK     0      23.775  33.920  -2.083  0.00  0.00     0.096 C 
ENDROOT
BRANCH   2   3
HETATM    3  C   UNK     0      22.338  33.932  -1.612  0.00  0.00     0.096 C 
HETATM    4 Br   UNK     0      22.046  35.464  -0.453  0.00  0.00    -0.096 Br
ENDBRANCH   2   3
TORSDOF 1
