REMARK  1 active torsions:
REMARK  status: ('A' for Active; 'I' for Inactive)
REMARK    1  A    between atoms: C_3  and  C_4 
ROOT
HETATM    1 Br   UNK     0      24.932  33.864  -0.576  0.00  0.00    -0.096 Br
HETATM    2  C   UNK     0      23.266  34.014  -1.569  0.00  0.00     0.096 C 
ENDROOT
BRANCH   2   3
HETATM    3  C   UNK     0      23.185  32.904  -2.589  0.00  0.00     0.096 C 
HETATM    4 Br   UNK     0      21.518  33.053  -3.579  0.00  0.00    -0.096 Br
ENDBRANCH   2   3
TORSDOF 1
