REMARK  1 active torsions:
REMARK  status: ('A' for Active; 'I' for Inactive)
REMARK    1  A    between atoms: C_3  and  C_4 
ROOT
HETATM    1 Br   UNK     0      23.926  33.101  -2.574  0.00  0.00    -0.096 Br
HETATM    2  C   UNK     0      23.386  34.633  -1.505  0.00  0.00     0.096 C 
ENDROOT
BRANCH   2   3
HETATM    3  C   UNK     0      21.992  34.407  -0.962  0.00  0.00     0.096 C 
HETATM    4 Br   UNK     0      21.652  35.655   0.488  0.00  0.00    -0.096 Br
ENDBRANCH   2   3
TORSDOF 1
