REMARK  1 active torsions:
REMARK  status: ('A' for Active; 'I' for Inactive)
REMARK    1  A    between atoms: C_3  and  C_4 
ROOT
HETATM    1 Br   UNK     0      24.712  33.721  -0.954  0.00  0.00    -0.096 Br
HETATM    2  C   UNK     0      23.267  33.533  -2.242  0.00  0.00     0.096 C 
ENDROOT
BRANCH   2   3
HETATM    3  C   UNK     0      23.534  32.341  -3.130  0.00  0.00     0.096 C 
HETATM    4 Br   UNK     0      21.988  32.016  -4.263  0.00  0.00    -0.096 Br
ENDBRANCH   2   3
TORSDOF 1
