REMARK  1 active torsions:
REMARK  status: ('A' for Active; 'I' for Inactive)
REMARK    1  A    between atoms: C_3  and  C_4 
ROOT
HETATM    1 Br   UNK     0      23.910  33.071  -2.574  0.00  0.00    -0.096 Br
HETATM    2  C   UNK     0      23.396  34.614  -1.507  0.00  0.00     0.096 C 
ENDROOT
BRANCH   2   3
HETATM    3  C   UNK     0      21.998  34.413  -0.964  0.00  0.00     0.096 C 
HETATM    4 Br   UNK     0      21.673  35.682   0.470  0.00  0.00    -0.096 Br
ENDBRANCH   2   3
TORSDOF 1
