REMARK  1 active torsions:
REMARK  status: ('A' for Active; 'I' for Inactive)
REMARK    1  A    between atoms: C_3  and  C_4 
ROOT
HETATM    1 Br   UNK     0      23.916  32.860  -2.685  0.00  0.00    -0.096 Br
HETATM    2  C   UNK     0      23.500  34.418  -1.598  0.00  0.00     0.096 C 
ENDROOT
BRANCH   2   3
HETATM    3  C   UNK     0      22.081  34.314  -1.084  0.00  0.00     0.096 C 
HETATM    4 Br   UNK     0      21.769  35.703   0.239  0.00  0.00    -0.096 Br
ENDBRANCH   2   3
TORSDOF 1
