REMARK  1 active torsions:
REMARK  status: ('A' for Active; 'I' for Inactive)
REMARK    1  A    between atoms: C_3  and  C_4 
ROOT
HETATM    1 Br   UNK     0      23.631  33.713  -2.206  0.00  0.00    -0.096 Br
HETATM    2  C   UNK     0      22.730  35.205  -1.346  0.00  0.00     0.096 C 
ENDROOT
BRANCH   2   3
HETATM    3  C   UNK     0      21.795  34.686  -0.275  0.00  0.00     0.096 C 
HETATM    4 Br   UNK     0      21.392  36.111   0.983  0.00  0.00    -0.096 Br
ENDBRANCH   2   3
TORSDOF 1
