REMARK  1 active torsions:
REMARK  status: ('A' for Active; 'I' for Inactive)
REMARK    1  A    between atoms: C_3  and  C_4 
ROOT
HETATM    1 Br   UNK     0      23.704  33.706  -2.162  0.00  0.00    -0.096 Br
HETATM    2  C   UNK     0      22.856  35.237  -1.318  0.00  0.00     0.096 C 
ENDROOT
BRANCH   2   3
HETATM    3  C   UNK     0      21.882  34.761  -0.261  0.00  0.00     0.096 C 
HETATM    4 Br   UNK     0      21.399  36.246   0.895  0.00  0.00    -0.096 Br
ENDBRANCH   2   3
TORSDOF 1
