REMARK  1 active torsions:
REMARK  status: ('A' for Active; 'I' for Inactive)
REMARK    1  A    between atoms: C_3  and  C_4 
ROOT
HETATM    1 Br   UNK     0      25.442  33.668  -1.598  0.00  0.00    -0.096 Br
HETATM    2  C   UNK     0      23.804  33.600  -2.646  0.00  0.00     0.096 C 
ENDROOT
BRANCH   2   3
HETATM    3  C   UNK     0      23.651  32.226  -3.251  0.00  0.00     0.096 C 
HETATM    4 Br   UNK     0      22.005  32.153  -4.285  0.00  0.00    -0.096 Br
ENDBRANCH   2   3
TORSDOF 1
