REMARK  1 active torsions:
REMARK  status: ('A' for Active; 'I' for Inactive)
REMARK    1  A    between atoms: C_3  and  C_4 
ROOT
HETATM    1 Br   UNK     0      23.896  33.362  -2.423  0.00  0.00    -0.096 Br
HETATM    2  C   UNK     0      23.342  34.888  -1.354  0.00  0.00     0.096 C 
ENDROOT
BRANCH   2   3
HETATM    3  C   UNK     0      21.951  34.649  -0.810  0.00  0.00     0.096 C 
HETATM    4 Br   UNK     0      21.605  35.884   0.650  0.00  0.00    -0.096 Br
ENDBRANCH   2   3
TORSDOF 1
