REMARK  1 active torsions:
REMARK  status: ('A' for Active; 'I' for Inactive)
REMARK    1  A    between atoms: C_3  and  C_4 
ROOT
HETATM    1 Br   UNK     0      24.598  31.938  -3.551  0.00  0.00    -0.096 Br
HETATM    2  C   UNK     0      24.158  33.272  -2.208  0.00  0.00     0.096 C 
ENDROOT
BRANCH   2   3
HETATM    3  C   UNK     0      22.673  33.239  -1.928  0.00  0.00     0.096 C 
HETATM    4 Br   UNK     0      22.122  34.927  -1.140  0.00  0.00    -0.096 Br
ENDBRANCH   2   3
TORSDOF 1
