MODEL 9
REMARK VINA RESULT:     0.375      2.762      2.964
REMARK INTER + INTRA:           0.397
REMARK INTER:                   0.397
REMARK INTRA:                   0.000
REMARK UNBOUND:                 0.000
REMARK  1 active torsions:
REMARK  status: ('A' for Active; 'I' for Inactive)
REMARK    1  A    between atoms: C_3  and  C_4 
ROOT
HETATM    1 Br   UNK     0      24.110  32.448  -3.898  0.00  0.00    -0.096 Br
HETATM    2  C   UNK     0      23.502  32.974  -2.126  0.00  0.00     0.096 C 
ENDROOT
BRANCH   2   3
HETATM    3  C   UNK     0      23.585  34.474  -1.990  0.00  0.00     0.096 C 
HETATM    4 Br   UNK     0      22.131  35.104  -0.861  0.00  0.00    -0.096 Br
ENDBRANCH   2   3
TORSDOF 1
ENDMDL
