REMARK  1 active torsions:
REMARK  status: ('A' for Active; 'I' for Inactive)
REMARK    1  A    between atoms: C_3  and  C_4 
ROOT
HETATM    1 Br   UNK     0      22.567  33.561  -1.866  0.00  0.00    -0.096 Br
HETATM    2  C   UNK     0      24.338  33.182  -2.576  0.00  0.00     0.096 C 
ENDROOT
BRANCH   2   3
HETATM    3  C   UNK     0      25.103  32.332  -1.593  0.00  0.00     0.096 C 
HETATM    4 Br   UNK     0      26.843  31.883  -2.339  0.00  0.00    -0.096 Br
ENDBRANCH   2   3
TORSDOF 1
