REMARK  1 active torsions:
REMARK  status: ('A' for Active; 'I' for Inactive)
REMARK    1  A    between atoms: C_3  and  C_4 
ROOT
HETATM    1 Br   UNK     0      20.639  35.384   2.048  0.00  0.00    -0.096 Br
HETATM    2  C   UNK     0      19.567  36.759   2.913  0.00  0.00     0.096 C 
ENDROOT
BRANCH   2   3
HETATM    3  C   UNK     0      18.691  36.127   3.965  0.00  0.00     0.096 C 
HETATM    4 Br   UNK     0      17.718  37.516   4.919  0.00  0.00    -0.096 Br
ENDBRANCH   2   3
TORSDOF 1
