REMARK  1 active torsions:
REMARK  status: ('A' for Active; 'I' for Inactive)
REMARK    1  A    between atoms: C_3  and  C_4 
ROOT
HETATM    1 Br   UNK     0      25.666  32.553  -2.312  0.00  0.00    -0.096 Br
HETATM    2  C   UNK     0      26.971  33.737  -3.139  0.00  0.00     0.096 C 
ENDROOT
BRANCH   2   3
HETATM    3  C   UNK     0      27.102  33.395  -4.603  0.00  0.00     0.096 C 
HETATM    4 Br   UNK     0      27.500  31.500  -4.793  0.00  0.00    -0.096 Br
ENDBRANCH   2   3
TORSDOF 1
