REMARK  1 active torsions:
REMARK  status: ('A' for Active; 'I' for Inactive)
REMARK    1  A    between atoms: C_3  and  C_4 
ROOT
HETATM    1 Br   UNK     0      25.425  33.507  -1.882  0.00  0.00    -0.096 Br
HETATM    2  C   UNK     0      23.608  34.203  -1.910  0.00  0.00     0.096 C 
ENDROOT
BRANCH   2   3
HETATM    3  C   UNK     0      22.630  33.055  -1.910  0.00  0.00     0.096 C 
HETATM    4 Br   UNK     0      20.813  33.751  -1.882  0.00  0.00    -0.096 Br
ENDBRANCH   2   3
TORSDOF 1
