REMARK  1 active torsions:
REMARK  status: ('A' for Active; 'I' for Inactive)
REMARK    1  A    between atoms: C_3  and  C_4 
ROOT
HETATM    1 Br   UNK     0      20.813  35.085   1.714  0.00  0.00    -0.096 Br
HETATM    2  C   UNK     0      19.974  36.670   2.470  0.00  0.00     0.096 C 
ENDROOT
BRANCH   2   3
HETATM    3  C   UNK     0      18.974  36.257   3.520  0.00  0.00     0.096 C 
HETATM    4 Br   UNK     0      19.424  37.103   5.214  0.00  0.00    -0.096 Br
ENDBRANCH   2   3
TORSDOF 1
