MODEL 9
REMARK VINA RESULT:    -0.709      2.289      3.974
REMARK INTER + INTRA:          -0.751
REMARK INTER:                  -0.751
REMARK INTRA:                   0.000
REMARK UNBOUND:                 0.000
REMARK  1 active torsions:
REMARK  status: ('A' for Active; 'I' for Inactive)
REMARK    1  A    between atoms: C_3  and  C_4 
ROOT
HETATM    1 Br   UNK     0      22.011  35.466  -0.503  0.00  0.00    -0.096 Br
HETATM    2  C   UNK     0      20.723  35.271   0.942  0.00  0.00     0.096 C 
ENDROOT
BRANCH   2   3
HETATM    3  C   UNK     0      21.344  35.733   2.236  0.00  0.00     0.096 C 
HETATM    4 Br   UNK     0      19.987  36.586   3.339  0.00  0.00    -0.096 Br
ENDBRANCH   2   3
TORSDOF 1
ENDMDL
