REMARK  1 active torsions:
REMARK  status: ('A' for Active; 'I' for Inactive)
REMARK    1  A    between atoms: C_3  and  C_4 
ROOT
HETATM    1 Br   UNK     0      21.382  35.661   2.244  0.00  0.00    -0.096 Br
HETATM    2  C   UNK     0      19.985  36.847   2.900  0.00  0.00     0.096 C 
ENDROOT
BRANCH   2   3
HETATM    3  C   UNK     0      18.812  36.026   3.375  0.00  0.00     0.096 C 
HETATM    4 Br   UNK     0      17.469  37.202   4.149  0.00  0.00    -0.096 Br
ENDBRANCH   2   3
TORSDOF 1
