REMARK  1 active torsions:
REMARK  status: ('A' for Active; 'I' for Inactive)
REMARK    1  A    between atoms: C_3  and  C_4 
ROOT
HETATM    1 Br   UNK     0      21.045  35.472   1.875  0.00  0.00    -0.096 Br
HETATM    2  C   UNK     0      19.530  36.593   2.356  0.00  0.00     0.096 C 
ENDROOT
BRANCH   2   3
HETATM    3  C   UNK     0      18.877  36.049   3.603  0.00  0.00     0.096 C 
HETATM    4 Br   UNK     0      17.575  37.335   4.267  0.00  0.00    -0.096 Br
ENDBRANCH   2   3
TORSDOF 1
