REMARK  1 active torsions:
REMARK  status: ('A' for Active; 'I' for Inactive)
REMARK    1  A    between atoms: C_3  and  C_4 
ROOT
HETATM    1 Br   UNK     0      21.269  36.157   1.729  0.00  0.00    -0.096 Br
HETATM    2  C   UNK     0      20.219  36.755   3.253  0.00  0.00     0.096 C 
ENDROOT
BRANCH   2   3
HETATM    3  C   UNK     0      18.944  35.956   3.331  0.00  0.00     0.096 C 
HETATM    4 Br   UNK     0      17.456  37.143   3.735  0.00  0.00    -0.096 Br
ENDBRANCH   2   3
TORSDOF 1
