REMARK  1 active torsions:
REMARK  status: ('A' for Active; 'I' for Inactive)
REMARK    1  A    between atoms: C_3  and  C_4 
ROOT
HETATM    1 Br   UNK     0      21.556  35.813   2.455  0.00  0.00    -0.096 Br
HETATM    2  C   UNK     0      19.907  36.846   2.480  0.00  0.00     0.096 C 
ENDROOT
BRANCH   2   3
HETATM    3  C   UNK     0      18.727  35.907   2.515  0.00  0.00     0.096 C 
HETATM    4 Br   UNK     0      17.077  36.940   2.543  0.00  0.00    -0.096 Br
ENDBRANCH   2   3
TORSDOF 1
