REMARK  1 active torsions:
REMARK  status: ('A' for Active; 'I' for Inactive)
REMARK    1  A    between atoms: C_3  and  C_4 
ROOT
HETATM    1 Br   UNK     0      27.260  32.039  -2.661  0.00  0.00    -0.096 Br
HETATM    2  C   UNK     0      26.029  31.699  -1.193  0.00  0.00     0.096 C 
ENDROOT
BRANCH   2   3
HETATM    3  C   UNK     0      26.442  30.442  -0.471  0.00  0.00     0.096 C 
HETATM    4 Br   UNK     0      27.662  29.421  -1.592  0.00  0.00    -0.096 Br
ENDBRANCH   2   3
TORSDOF 1
