REMARK  1 active torsions:
REMARK  status: ('A' for Active; 'I' for Inactive)
REMARK    1  A    between atoms: C_3  and  C_4 
ROOT
HETATM    1 Br   UNK     0      19.132  36.023   3.951  0.00  0.00    -0.096 Br
HETATM    2  C   UNK     0      19.707  36.599   2.184  0.00  0.00     0.096 C 
ENDROOT
BRANCH   2   3
HETATM    3  C   UNK     0      21.203  36.444   2.067  0.00  0.00     0.096 C 
HETATM    4 Br   UNK     0      21.657  35.889   0.258  0.00  0.00    -0.096 Br
ENDBRANCH   2   3
TORSDOF 1
