REMARK  1 active torsions:
REMARK  status: ('A' for Active; 'I' for Inactive)
REMARK    1  A    between atoms: C_3  and  C_4 
ROOT
HETATM    1 Br   UNK     0      20.915  35.310   1.224  0.00  0.00    -0.096 Br
HETATM    2  C   UNK     0      20.082  36.577   2.444  0.00  0.00     0.096 C 
ENDROOT
BRANCH   2   3
HETATM    3  C   UNK     0      19.305  35.825   3.495  0.00  0.00     0.096 C 
HETATM    4 Br   UNK     0      19.132  36.930   5.088  0.00  0.00    -0.096 Br
ENDBRANCH   2   3
TORSDOF 1
