REMARK  1 active torsions:
REMARK  status: ('A' for Active; 'I' for Inactive)
REMARK    1  A    between atoms: C_3  and  C_4 
ROOT
HETATM    1 Br   UNK     0      24.495  35.016  -0.485  0.00  0.00    -0.096 Br
HETATM    2  C   UNK     0      22.678  35.712  -0.513  0.00  0.00     0.096 C 
ENDROOT
BRANCH   2   3
HETATM    3  C   UNK     0      21.700  34.564  -0.513  0.00  0.00     0.096 C 
HETATM    4 Br   UNK     0      19.883  35.260  -0.485  0.00  0.00    -0.096 Br
ENDBRANCH   2   3
TORSDOF 1
