MODEL 2
REMARK VINA RESULT:    -3.302      1.925      1.925
REMARK INTER + INTRA:          -3.495
REMARK INTER:                  -3.495
REMARK INTRA:                   0.000
REMARK UNBOUND:                 0.000
REMARK  1 active torsions:
REMARK  status: ('A' for Active; 'I' for Inactive)
REMARK    1  A    between atoms: C_3  and  C_4 
ROOT
HETATM    1 Br   UNK     0      17.384  36.928   2.533  0.00  0.00    -0.096 Br
HETATM    2  C   UNK     0      18.838  36.212   3.609  0.00  0.00     0.096 C 
ENDROOT
BRANCH   2   3
HETATM    3  C   UNK     0      19.747  35.382   2.738  0.00  0.00     0.096 C 
HETATM    4 Br   UNK     0      20.980  36.551   1.789  0.00  0.00    -0.096 Br
ENDBRANCH   2   3
TORSDOF 1
ENDMDL
