REMARK  1 active torsions:
REMARK  status: ('A' for Active; 'I' for Inactive)
REMARK    1  A    between atoms: C_3  and  C_4 
ROOT
HETATM    1 Br   UNK     0      21.964  34.928  -0.106  0.00  0.00    -0.096 Br
HETATM    2  C   UNK     0      22.730  34.671  -1.878  0.00  0.00     0.096 C 
ENDROOT
BRANCH   2   3
HETATM    3  C   UNK     0      23.596  33.437  -1.875  0.00  0.00     0.096 C 
HETATM    4 Br   UNK     0      23.103  32.294  -3.371  0.00  0.00    -0.096 Br
ENDBRANCH   2   3
TORSDOF 1
