REMARK  1 active torsions:
REMARK  status: ('A' for Active; 'I' for Inactive)
REMARK    1  A    between atoms: C_3  and  C_4 
ROOT
HETATM    1 Br   UNK     0      21.980  34.959  -0.179  0.00  0.00    -0.096 Br
HETATM    2  C   UNK     0      22.818  34.741  -1.923  0.00  0.00     0.096 C 
ENDROOT
BRANCH   2   3
HETATM    3  C   UNK     0      23.656  33.489  -1.925  0.00  0.00     0.096 C 
HETATM    4 Br   UNK     0      23.139  32.364  -3.428  0.00  0.00    -0.096 Br
ENDBRANCH   2   3
TORSDOF 1
