REMARK  1 active torsions:
REMARK  status: ('A' for Active; 'I' for Inactive)
REMARK    1  A    between atoms: C_3  and  C_4 
ROOT
HETATM    1 Br   UNK     0      21.246  35.596   2.083  0.00  0.00    -0.096 Br
HETATM    2  C   UNK     0      19.907  36.801   2.820  0.00  0.00     0.096 C 
ENDROOT
BRANCH   2   3
HETATM    3  C   UNK     0      18.899  36.008   3.611  0.00  0.00     0.096 C 
HETATM    4 Br   UNK     0      17.552  37.212   4.338  0.00  0.00    -0.096 Br
ENDBRANCH   2   3
TORSDOF 1
