REMARK  1 active torsions:
REMARK  status: ('A' for Active; 'I' for Inactive)
REMARK    1  A    between atoms: C_3  and  C_4 
ROOT
HETATM    1 Br   UNK     0      20.993  35.605   1.896  0.00  0.00    -0.096 Br
HETATM    2  C   UNK     0      20.173  36.819   3.177  0.00  0.00     0.096 C 
ENDROOT
BRANCH   2   3
HETATM    3  C   UNK     0      19.003  36.135   3.838  0.00  0.00     0.096 C 
HETATM    4 Br   UNK     0      18.732  36.887   5.613  0.00  0.00    -0.096 Br
ENDBRANCH   2   3
TORSDOF 1
