REMARK  1 active torsions:
REMARK  status: ('A' for Active; 'I' for Inactive)
REMARK    1  A    between atoms: C_3  and  C_4 
ROOT
HETATM    1 Br   UNK     0      18.471  36.380   4.098  0.00  0.00    -0.096 Br
HETATM    2  C   UNK     0      19.114  36.721   2.294  0.00  0.00     0.096 C 
ENDROOT
BRANCH   2   3
HETATM    3  C   UNK     0      20.598  36.459   2.231  0.00  0.00     0.096 C 
HETATM    4 Br   UNK     0      20.907  34.592   1.775  0.00  0.00    -0.096 Br
ENDBRANCH   2   3
TORSDOF 1
