REMARK  1 active torsions:
REMARK  status: ('A' for Active; 'I' for Inactive)
REMARK    1  A    between atoms: C_3  and  C_4 
ROOT
HETATM    1 Br   UNK     0      21.424  35.477   1.893  0.00  0.00    -0.096 Br
HETATM    2  C   UNK     0      20.133  36.678   2.715  0.00  0.00     0.096 C 
ENDROOT
BRANCH   2   3
HETATM    3  C   UNK     0      19.107  35.872   3.472  0.00  0.00     0.096 C 
HETATM    4 Br   UNK     0      17.836  37.075   4.322  0.00  0.00    -0.096 Br
ENDBRANCH   2   3
TORSDOF 1
