REMARK  1 active torsions:
REMARK  status: ('A' for Active; 'I' for Inactive)
REMARK    1  A    between atoms: C_3  and  C_4 
ROOT
HETATM    1 Br   UNK     0      24.766  34.865  -0.698  0.00  0.00    -0.096 Br
HETATM    2  C   UNK     0      22.949  35.561  -0.726  0.00  0.00     0.096 C 
ENDROOT
BRANCH   2   3
HETATM    3  C   UNK     0      21.971  34.413  -0.726  0.00  0.00     0.096 C 
HETATM    4 Br   UNK     0      20.154  35.109  -0.698  0.00  0.00    -0.096 Br
ENDBRANCH   2   3
TORSDOF 1
