MODEL 1
REMARK VINA RESULT:    -3.346      0.000      0.000
REMARK INTER + INTRA:          -3.542
REMARK INTER:                  -3.542
REMARK INTRA:                   0.000
REMARK UNBOUND:                 0.000
REMARK  1 active torsions:
REMARK  status: ('A' for Active; 'I' for Inactive)
REMARK    1  A    between atoms: C_3  and  C_4 
ROOT
HETATM    1 Br   UNK     0      19.496  37.070   5.227  0.00  0.00    -0.096 Br
HETATM    2  C   UNK     0      18.655  36.431   3.593  0.00  0.00     0.096 C 
ENDROOT
BRANCH   2   3
HETATM    3  C   UNK     0      19.587  35.478   2.888  0.00  0.00     0.096 C 
HETATM    4 Br   UNK     0      20.996  36.485   2.001  0.00  0.00    -0.096 Br
ENDBRANCH   2   3
TORSDOF 1
ENDMDL
