MODEL 1
REMARK VINA RESULT:    -3.080      0.000      0.000
REMARK INTER + INTRA:          -3.260
REMARK INTER:                  -3.260
REMARK INTRA:                   0.000
REMARK UNBOUND:                 0.000
REMARK  1 active torsions:
REMARK  status: ('A' for Active; 'I' for Inactive)
REMARK    1  A    between atoms: C_3  and  C_4 
ROOT
HETATM    1 Br   UNK     0      17.873  36.790   2.502  0.00  0.00    -0.096 Br
HETATM    2  C   UNK     0      19.191  35.687   3.415  0.00  0.00     0.096 C 
ENDROOT
BRANCH   2   3
HETATM    3  C   UNK     0      20.134  35.089   2.402  0.00  0.00     0.096 C 
HETATM    4 Br   UNK     0      21.237  36.496   1.633  0.00  0.00    -0.096 Br
ENDBRANCH   2   3
TORSDOF 1
ENDMDL
