MODEL 1
REMARK VINA RESULT:    -3.146      0.000      0.000
REMARK INTER + INTRA:          -3.330
REMARK INTER:                  -3.330
REMARK INTRA:                   0.000
REMARK UNBOUND:                 0.000
REMARK  1 active torsions:
REMARK  status: ('A' for Active; 'I' for Inactive)
REMARK    1  A    between atoms: C_3  and  C_4 
ROOT
HETATM    1 Br   UNK     0      17.762  36.931   2.408  0.00  0.00    -0.096 Br
HETATM    2  C   UNK     0      19.050  36.001   3.532  0.00  0.00     0.096 C 
ENDROOT
BRANCH   2   3
HETATM    3  C   UNK     0      19.995  35.209   2.664  0.00  0.00     0.096 C 
HETATM    4 Br   UNK     0      21.133  36.429   1.663  0.00  0.00    -0.096 Br
ENDBRANCH   2   3
TORSDOF 1
ENDMDL
