MODEL 1
REMARK VINA RESULT:    -3.322      0.000      0.000
REMARK INTER + INTRA:          -3.517
REMARK INTER:                  -3.517
REMARK INTRA:                   0.000
REMARK UNBOUND:                 0.000
REMARK  1 active torsions:
REMARK  status: ('A' for Active; 'I' for Inactive)
REMARK    1  A    between atoms: C_3  and  C_4 
ROOT
HETATM    1 Br   UNK     0      19.849  37.167   5.106  0.00  0.00    -0.096 Br
HETATM    2  C   UNK     0      18.757  36.010   3.985  0.00  0.00     0.096 C 
ENDROOT
BRANCH   2   3
HETATM    3  C   UNK     0      18.999  36.342   2.534  0.00  0.00     0.096 C 
HETATM    4 Br   UNK     0      20.900  36.203   2.145  0.00  0.00    -0.096 Br
ENDBRANCH   2   3
TORSDOF 1
ENDMDL
