MODEL 1
REMARK VINA RESULT:    -3.309      0.000      0.000
REMARK INTER + INTRA:          -3.503
REMARK INTER:                  -3.503
REMARK INTRA:                   0.000
REMARK UNBOUND:                 0.000
REMARK  1 active torsions:
REMARK  status: ('A' for Active; 'I' for Inactive)
REMARK    1  A    between atoms: C_3  and  C_4 
ROOT
HETATM    1 Br   UNK     0      19.856  37.159   5.153  0.00  0.00    -0.096 Br
HETATM    2  C   UNK     0      18.753  36.023   4.021  0.00  0.00     0.096 C 
ENDROOT
BRANCH   2   3
HETATM    3  C   UNK     0      18.992  36.372   2.574  0.00  0.00     0.096 C 
HETATM    4 Br   UNK     0      20.893  36.234   2.180  0.00  0.00    -0.096 Br
ENDBRANCH   2   3
TORSDOF 1
ENDMDL
