MODEL 1
REMARK VINA RESULT:    -3.027      0.000      0.000
REMARK INTER + INTRA:          -3.204
REMARK INTER:                  -3.204
REMARK INTRA:                   0.000
REMARK UNBOUND:                 0.000
REMARK  1 active torsions:
REMARK  status: ('A' for Active; 'I' for Inactive)
REMARK    1  A    between atoms: C_3  and  C_4 
ROOT
HETATM    1 Br   UNK     0      17.953  36.950   2.262  0.00  0.00    -0.096 Br
HETATM    2  C   UNK     0      19.103  35.797   3.328  0.00  0.00     0.096 C 
ENDROOT
BRANCH   2   3
HETATM    3  C   UNK     0      20.140  35.160   2.438  0.00  0.00     0.096 C 
HETATM    4 Br   UNK     0      21.200  36.548   1.580  0.00  0.00    -0.096 Br
ENDBRANCH   2   3
TORSDOF 1
ENDMDL
