MODEL 1
REMARK VINA RESULT:    -3.157      0.000      0.000
REMARK INTER + INTRA:          -3.342
REMARK INTER:                  -3.342
REMARK INTRA:                   0.000
REMARK UNBOUND:                 0.000
REMARK  1 active torsions:
REMARK  status: ('A' for Active; 'I' for Inactive)
REMARK    1  A    between atoms: C_3  and  C_4 
ROOT
HETATM    1 Br   UNK     0      17.814  36.916   2.554  0.00  0.00    -0.096 Br
HETATM    2  C   UNK     0      19.102  35.796   3.488  0.00  0.00     0.096 C 
ENDROOT
BRANCH   2   3
HETATM    3  C   UNK     0      20.038  35.165   2.488  0.00  0.00     0.096 C 
HETATM    4 Br   UNK     0      21.164  36.540   1.697  0.00  0.00    -0.096 Br
ENDBRANCH   2   3
TORSDOF 1
ENDMDL
