MODEL 1
REMARK VINA RESULT:    -3.314      0.000      0.000
REMARK INTER + INTRA:          -3.507
REMARK INTER:                  -3.507
REMARK INTRA:                   0.000
REMARK UNBOUND:                 0.000
REMARK  1 active torsions:
REMARK  status: ('A' for Active; 'I' for Inactive)
REMARK    1  A    between atoms: C_3  and  C_4 
ROOT
HETATM    1 Br   UNK     0      19.407  37.057   5.389  0.00  0.00    -0.096 Br
HETATM    2  C   UNK     0      18.637  36.650   3.649  0.00  0.00     0.096 C 
ENDROOT
BRANCH   2   3
HETATM    3  C   UNK     0      19.457  35.579   2.974  0.00  0.00     0.096 C 
HETATM    4 Br   UNK     0      20.891  36.408   1.952  0.00  0.00    -0.096 Br
ENDBRANCH   2   3
TORSDOF 1
ENDMDL
