MODEL 1
REMARK VINA RESULT:    -3.304      0.000      0.000
REMARK INTER + INTRA:          -3.497
REMARK INTER:                  -3.497
REMARK INTRA:                   0.000
REMARK UNBOUND:                 0.000
REMARK  1 active torsions:
REMARK  status: ('A' for Active; 'I' for Inactive)
REMARK    1  A    between atoms: C_3  and  C_4 
ROOT
HETATM    1 Br   UNK     0      21.032  36.494   1.796  0.00  0.00    -0.096 Br
HETATM    2  C   UNK     0      19.757  35.328   2.691  0.00  0.00     0.096 C 
ENDROOT
BRANCH   2   3
HETATM    3  C   UNK     0      18.852  36.154   3.570  0.00  0.00     0.096 C 
HETATM    4 Br   UNK     0      17.429  36.926   2.490  0.00  0.00    -0.096 Br
ENDBRANCH   2   3
TORSDOF 1
ENDMDL
