MODEL 1
REMARK VINA RESULT:    -3.244      0.000      0.000
REMARK INTER + INTRA:          -3.434
REMARK INTER:                  -3.434
REMARK INTRA:                   0.000
REMARK UNBOUND:                 0.000
REMARK  1 active torsions:
REMARK  status: ('A' for Active; 'I' for Inactive)
REMARK    1  A    between atoms: C_3  and  C_4 
ROOT
HETATM    1 Br   UNK     0      17.404  36.959   3.639  0.00  0.00    -0.096 Br
HETATM    2  C   UNK     0      19.193  36.260   3.950  0.00  0.00     0.096 C 
ENDROOT
BRANCH   2   3
HETATM    3  C   UNK     0      19.647  35.485   2.738  0.00  0.00     0.096 C 
HETATM    4 Br   UNK     0      21.052  36.475   1.825  0.00  0.00    -0.096 Br
ENDBRANCH   2   3
TORSDOF 1
ENDMDL
