MODEL 1
REMARK VINA RESULT:    -3.348      0.000      0.000
REMARK INTER + INTRA:          -3.544
REMARK INTER:                  -3.544
REMARK INTRA:                   0.000
REMARK UNBOUND:                 0.000
REMARK  1 active torsions:
REMARK  status: ('A' for Active; 'I' for Inactive)
REMARK    1  A    between atoms: C_3  and  C_4 
ROOT
HETATM    1 Br   UNK     0      20.970  36.551   1.839  0.00  0.00    -0.096 Br
HETATM    2  C   UNK     0      19.708  35.449   2.828  0.00  0.00     0.096 C 
ENDROOT
BRANCH   2   3
HETATM    3  C   UNK     0      18.711  36.335   3.532  0.00  0.00     0.096 C 
HETATM    4 Br   UNK     0      19.515  37.059   5.149  0.00  0.00    -0.096 Br
ENDBRANCH   2   3
TORSDOF 1
ENDMDL
