MODEL 1
REMARK VINA RESULT:     3.815      0.000      0.000
REMARK INTER + INTRA:           4.038
REMARK INTER:                   4.038
REMARK INTRA:                   0.000
REMARK UNBOUND:                 0.000
REMARK  1 active torsions:
REMARK  status: ('A' for Active; 'I' for Inactive)
REMARK    1  A    between atoms: C_3  and  C_4 
ROOT
HETATM    1 Br   UNK     0      17.398  37.050   2.104  0.00  0.00    -0.096 Br
HETATM    2  C   UNK     0      17.705  37.039   4.026  0.00  0.00     0.096 C 
ENDROOT
BRANCH   2   3
HETATM    3  C   UNK     0      18.974  36.282   4.328  0.00  0.00     0.096 C 
HETATM    4 Br   UNK     0      19.913  35.901   2.666  0.00  0.00    -0.096 Br
ENDBRANCH   2   3
TORSDOF 1
ENDMDL
