MODEL 1
REMARK VINA RESULT:    -3.266      0.000      0.000
REMARK INTER + INTRA:          -3.457
REMARK INTER:                  -3.457
REMARK INTRA:                   0.000
REMARK UNBOUND:                 0.000
REMARK  1 active torsions:
REMARK  status: ('A' for Active; 'I' for Inactive)
REMARK    1  A    between atoms: C_3  and  C_4 
ROOT
HETATM    1 Br   UNK     0      19.717  37.191   5.254  0.00  0.00    -0.096 Br
HETATM    2  C   UNK     0      18.650  36.067   4.077  0.00  0.00     0.096 C 
ENDROOT
BRANCH   2   3
HETATM    3  C   UNK     0      18.912  36.451   2.642  0.00  0.00     0.096 C 
HETATM    4 Br   UNK     0      20.801  36.211   2.241  0.00  0.00    -0.096 Br
ENDBRANCH   2   3
TORSDOF 1
ENDMDL
