MODEL 6
REMARK VINA RESULT:    -1.551      2.235      2.399
REMARK INTER + INTRA:          -1.641
REMARK INTER:                  -1.641
REMARK INTRA:                   0.000
REMARK UNBOUND:                 0.000
REMARK  1 active torsions:
REMARK  status: ('A' for Active; 'I' for Inactive)
REMARK    1  A    between atoms: C_3  and  C_4 
ROOT
HETATM    1 Br   UNK     0      20.624  34.269   2.075  0.00  0.00    -0.096 Br
HETATM    2  C   UNK     0      19.533  35.468   3.151  0.00  0.00     0.096 C 
ENDROOT
BRANCH   2   3
HETATM    3  C   UNK     0      20.054  36.877   3.020  0.00  0.00     0.096 C 
HETATM    4 Br   UNK     0      21.316  36.966   1.540  0.00  0.00    -0.096 Br
ENDBRANCH   2   3
TORSDOF 1
ENDMDL
