MODEL 7
REMARK VINA RESULT:    -1.763      2.166      2.210
REMARK INTER + INTRA:          -1.866
REMARK INTER:                  -1.866
REMARK INTRA:                   0.000
REMARK UNBOUND:                 0.000
REMARK  1 active torsions:
REMARK  status: ('A' for Active; 'I' for Inactive)
REMARK    1  A    between atoms: C_3  and  C_4 
ROOT
HETATM    1 Br   UNK     0      18.354  36.362   2.678  0.00  0.00    -0.096 Br
HETATM    2  C   UNK     0      20.189  37.005   2.757  0.00  0.00     0.096 C 
ENDROOT
BRANCH   2   3
HETATM    3  C   UNK     0      21.041  36.209   1.800  0.00  0.00     0.096 C 
HETATM    4 Br   UNK     0      20.737  34.309   2.086  0.00  0.00    -0.096 Br
ENDBRANCH   2   3
TORSDOF 1
ENDMDL
