MODEL 7
REMARK VINA RESULT:    -1.104      1.971      2.380
REMARK INTER + INTRA:          -1.169
REMARK INTER:                  -1.169
REMARK INTRA:                   0.000
REMARK UNBOUND:                 0.000
REMARK  1 active torsions:
REMARK  status: ('A' for Active; 'I' for Inactive)
REMARK    1  A    between atoms: C_3  and  C_4 
ROOT
HETATM    1 Br   UNK     0      20.005  34.721   1.668  0.00  0.00    -0.096 Br
HETATM    2  C   UNK     0      19.335  35.598   3.271  0.00  0.00     0.096 C 
ENDROOT
BRANCH   2   3
HETATM    3  C   UNK     0      20.188  36.804   3.578  0.00  0.00     0.096 C 
HETATM    4 Br   UNK     0      21.514  37.035   2.173  0.00  0.00    -0.096 Br
ENDBRANCH   2   3
TORSDOF 1
ENDMDL
