MODEL 8
REMARK VINA RESULT:    -1.511      2.166      2.409
REMARK INTER + INTRA:          -1.599
REMARK INTER:                  -1.599
REMARK INTRA:                   0.000
REMARK UNBOUND:                 0.000
REMARK  1 active torsions:
REMARK  status: ('A' for Active; 'I' for Inactive)
REMARK    1  A    between atoms: C_3  and  C_4 
ROOT
HETATM    1 Br   UNK     0      20.456  34.304   2.136  0.00  0.00    -0.096 Br
HETATM    2  C   UNK     0      19.452  35.537   3.257  0.00  0.00     0.096 C 
ENDROOT
BRANCH   2   3
HETATM    3  C   UNK     0      20.076  36.908   3.181  0.00  0.00     0.096 C 
HETATM    4 Br   UNK     0      21.366  36.953   1.724  0.00  0.00    -0.096 Br
ENDBRANCH   2   3
TORSDOF 1
ENDMDL
