MODEL 8
REMARK VINA RESULT:    -1.836      1.840      2.097
REMARK INTER + INTRA:          -1.944
REMARK INTER:                  -1.944
REMARK INTRA:                   0.000
REMARK UNBOUND:                 0.000
REMARK  1 active torsions:
REMARK  status: ('A' for Active; 'I' for Inactive)
REMARK    1  A    between atoms: C_3  and  C_4 
ROOT
HETATM    1 Br   UNK     0      21.365  37.060   1.347  0.00  0.00    -0.096 Br
HETATM    2  C   UNK     0      20.983  35.152   1.296  0.00  0.00     0.096 C 
ENDROOT
BRANCH   2   3
HETATM    3  C   UNK     0      20.055  34.795   2.430  0.00  0.00     0.096 C 
HETATM    4 Br   UNK     0      19.572  36.409   3.405  0.00  0.00    -0.096 Br
ENDBRANCH   2   3
TORSDOF 1
ENDMDL
