MODEL 3
REMARK VINA RESULT:    -3.277      1.736      2.784
REMARK INTER + INTRA:          -3.469
REMARK INTER:                  -3.469
REMARK INTRA:                   0.000
REMARK UNBOUND:                 0.000
REMARK  1 active torsions:
REMARK  status: ('A' for Active; 'I' for Inactive)
REMARK    1  A    between atoms: C_3  and  C_4 
ROOT
HETATM    1 Br   UNK     0      17.515  36.966   2.339  0.00  0.00    -0.096 Br
HETATM    2  C   UNK     0      18.797  36.193   3.582  0.00  0.00     0.096 C 
ENDROOT
BRANCH   2   3
HETATM    3  C   UNK     0      19.794  35.355   2.821  0.00  0.00     0.096 C 
HETATM    4 Br   UNK     0      21.001  36.520   1.834  0.00  0.00    -0.096 Br
ENDBRANCH   2   3
TORSDOF 1
ENDMDL
