MODEL 1
REMARK VINA RESULT:    -3.350      0.000      0.000
REMARK INTER + INTRA:          -3.546
REMARK INTER:                  -3.546
REMARK INTRA:                   0.000
REMARK UNBOUND:                 0.000
REMARK  1 active torsions:
REMARK  status: ('A' for Active; 'I' for Inactive)
REMARK    1  A    between atoms: C_3  and  C_4 
ROOT
HETATM    1 Br   UNK     0      19.591  37.029   5.151  0.00  0.00    -0.096 Br
HETATM    2  C   UNK     0      18.683  36.349   3.569  0.00  0.00     0.096 C 
ENDROOT
BRANCH   2   3
HETATM    3  C   UNK     0      19.622  35.459   2.795  0.00  0.00     0.096 C 
HETATM    4 Br   UNK     0      20.967  36.551   1.908  0.00  0.00    -0.096 Br
ENDBRANCH   2   3
TORSDOF 1
ENDMDL
