MODEL 1
REMARK VINA RESULT:    -3.126      0.000      0.000
REMARK INTER + INTRA:          -3.309
REMARK INTER:                  -3.309
REMARK INTRA:                   0.000
REMARK UNBOUND:                 0.000
REMARK  1 active torsions:
REMARK  status: ('A' for Active; 'I' for Inactive)
REMARK    1  A    between atoms: C_3  and  C_4 
ROOT
HETATM    1 Br   UNK     0      17.762  36.774   2.332  0.00  0.00    -0.096 Br
HETATM    2  C   UNK     0      18.845  36.093   3.799  0.00  0.00     0.096 C 
ENDROOT
BRANCH   2   3
HETATM    3  C   UNK     0      20.232  36.679   3.714  0.00  0.00     0.096 C 
HETATM    4 Br   UNK     0      20.968  36.349   1.943  0.00  0.00    -0.096 Br
ENDBRANCH   2   3
TORSDOF 1
ENDMDL
