MODEL 1
REMARK VINA RESULT:    -3.285      0.000      0.000
REMARK INTER + INTRA:          -3.477
REMARK INTER:                  -3.477
REMARK INTRA:                   0.000
REMARK UNBOUND:                 0.000
REMARK  1 active torsions:
REMARK  status: ('A' for Active; 'I' for Inactive)
REMARK    1  A    between atoms: C_3  and  C_4 
ROOT
HETATM    1 Br   UNK     0      21.086  36.510   1.982  0.00  0.00    -0.096 Br
HETATM    2  C   UNK     0      19.654  35.407   2.702  0.00  0.00     0.096 C 
ENDROOT
BRANCH   2   3
HETATM    3  C   UNK     0      18.982  36.135   3.839  0.00  0.00     0.096 C 
HETATM    4 Br   UNK     0      17.340  36.961   3.201  0.00  0.00    -0.096 Br
ENDBRANCH   2   3
TORSDOF 1
ENDMDL
