MODEL 1
REMARK VINA RESULT:    -2.485      0.000      0.000
REMARK INTER + INTRA:          -2.631
REMARK INTER:                  -2.631
REMARK INTRA:                   0.000
REMARK UNBOUND:                 0.000
REMARK  1 active torsions:
REMARK  status: ('A' for Active; 'I' for Inactive)
REMARK    1  A    between atoms: C_3  and  C_4 
ROOT
HETATM    1 Br   UNK     0      21.198  36.638   1.224  0.00  0.00    -0.096 Br
HETATM    2  C   UNK     0      20.349  35.072   2.008  0.00  0.00     0.096 C 
ENDROOT
BRANCH   2   3
HETATM    3  C   UNK     0      19.287  35.513   2.984  0.00  0.00     0.096 C 
HETATM    4 Br   UNK     0      18.205  36.914   2.177  0.00  0.00    -0.096 Br
ENDBRANCH   2   3
TORSDOF 1
ENDMDL
