MODEL 1
REMARK VINA RESULT:    -3.302      0.000      0.000
REMARK INTER + INTRA:          -3.495
REMARK INTER:                  -3.495
REMARK INTRA:                   0.000
REMARK UNBOUND:                 0.000
REMARK  1 active torsions:
REMARK  status: ('A' for Active; 'I' for Inactive)
REMARK    1  A    between atoms: C_3  and  C_4 
ROOT
HETATM    1 Br   UNK     0      19.906  37.140   5.043  0.00  0.00    -0.096 Br
HETATM    2  C   UNK     0      18.781  35.966   3.973  0.00  0.00     0.096 C 
ENDROOT
BRANCH   2   3
HETATM    3  C   UNK     0      18.985  36.271   2.511  0.00  0.00     0.096 C 
HETATM    4 Br   UNK     0      20.888  36.256   2.104  0.00  0.00    -0.096 Br
ENDBRANCH   2   3
TORSDOF 1
ENDMDL
