MODEL 1
REMARK VINA RESULT:    -3.305      0.000      0.000
REMARK INTER + INTRA:          -3.498
REMARK INTER:                  -3.498
REMARK INTRA:                   0.000
REMARK UNBOUND:                 0.000
REMARK  1 active torsions:
REMARK  status: ('A' for Active; 'I' for Inactive)
REMARK    1  A    between atoms: C_3  and  C_4 
ROOT
HETATM    1 Br   UNK     0      19.896  37.143   5.012  0.00  0.00    -0.096 Br
HETATM    2  C   UNK     0      18.815  35.977   3.891  0.00  0.00     0.096 C 
ENDROOT
BRANCH   2   3
HETATM    3  C   UNK     0      19.063  36.304   2.440  0.00  0.00     0.096 C 
HETATM    4 Br   UNK     0      20.971  36.217   2.072  0.00  0.00    -0.096 Br
ENDBRANCH   2   3
TORSDOF 1
ENDMDL
