MODEL 1
REMARK VINA RESULT:    -3.300      0.000      0.000
REMARK INTER + INTRA:          -3.493
REMARK INTER:                  -3.493
REMARK INTRA:                   0.000
REMARK UNBOUND:                 0.000
REMARK  1 active torsions:
REMARK  status: ('A' for Active; 'I' for Inactive)
REMARK    1  A    between atoms: C_3  and  C_4 
ROOT
HETATM    1 Br   UNK     0      20.923  36.324   2.006  0.00  0.00    -0.096 Br
HETATM    2  C   UNK     0      19.456  35.555   3.028  0.00  0.00     0.096 C 
ENDROOT
BRANCH   2   3
HETATM    3  C   UNK     0      18.681  36.658   3.704  0.00  0.00     0.096 C 
HETATM    4 Br   UNK     0      19.505  37.072   5.418  0.00  0.00    -0.096 Br
ENDBRANCH   2   3
TORSDOF 1
ENDMDL
