MODEL 1
REMARK VINA RESULT:    -3.278      0.000      0.000
REMARK INTER + INTRA:          -3.470
REMARK INTER:                  -3.470
REMARK INTRA:                   0.000
REMARK UNBOUND:                 0.000
REMARK  1 active torsions:
REMARK  status: ('A' for Active; 'I' for Inactive)
REMARK    1  A    between atoms: C_3  and  C_4 
ROOT
HETATM    1 Br   UNK     0      17.361  36.889   2.639  0.00  0.00    -0.096 Br
HETATM    2  C   UNK     0      18.909  36.171   3.575  0.00  0.00     0.096 C 
ENDROOT
BRANCH   2   3
HETATM    3  C   UNK     0      19.737  35.348   2.620  0.00  0.00     0.096 C 
HETATM    4 Br   UNK     0      21.134  36.461   1.849  0.00  0.00    -0.096 Br
ENDBRANCH   2   3
TORSDOF 1
ENDMDL
