MODEL 1
REMARK VINA RESULT:    -3.352      0.000      0.000
REMARK INTER + INTRA:          -3.548
REMARK INTER:                  -3.548
REMARK INTRA:                   0.000
REMARK UNBOUND:                 0.000
REMARK  1 active torsions:
REMARK  status: ('A' for Active; 'I' for Inactive)
REMARK    1  A    between atoms: C_3  and  C_4 
ROOT
HETATM    1 Br   UNK     0      21.009  36.530   1.973  0.00  0.00    -0.096 Br
HETATM    2  C   UNK     0      19.654  35.445   2.852  0.00  0.00     0.096 C 
ENDROOT
BRANCH   2   3
HETATM    3  C   UNK     0      18.718  36.339   3.625  0.00  0.00     0.096 C 
HETATM    4 Br   UNK     0      19.663  37.112   5.140  0.00  0.00    -0.096 Br
ENDBRANCH   2   3
TORSDOF 1
ENDMDL
