MODEL 1
REMARK VINA RESULT:    -3.274      0.000      0.000
REMARK INTER + INTRA:          -3.465
REMARK INTER:                  -3.465
REMARK INTRA:                   0.000
REMARK UNBOUND:                 0.000
REMARK  1 active torsions:
REMARK  status: ('A' for Active; 'I' for Inactive)
REMARK    1  A    between atoms: C_3  and  C_4 
ROOT
HETATM    1 Br   UNK     0      19.699  37.167   5.206  0.00  0.00    -0.096 Br
HETATM    2  C   UNK     0      18.641  36.071   3.996  0.00  0.00     0.096 C 
ENDROOT
BRANCH   2   3
HETATM    3  C   UNK     0      18.916  36.485   2.572  0.00  0.00     0.096 C 
HETATM    4 Br   UNK     0      20.804  36.229   2.176  0.00  0.00    -0.096 Br
ENDBRANCH   2   3
TORSDOF 1
ENDMDL
