MODEL 1
REMARK VINA RESULT:    -3.306      0.000      0.000
REMARK INTER + INTRA:          -3.499
REMARK INTER:                  -3.499
REMARK INTRA:                   0.000
REMARK UNBOUND:                 0.000
REMARK  1 active torsions:
REMARK  status: ('A' for Active; 'I' for Inactive)
REMARK    1  A    between atoms: C_3  and  C_4 
ROOT
HETATM    1 Br   UNK     0      19.851  37.163   5.121  0.00  0.00    -0.096 Br
HETATM    2  C   UNK     0      18.761  36.014   3.991  0.00  0.00     0.096 C 
ENDROOT
BRANCH   2   3
HETATM    3  C   UNK     0      19.019  36.344   2.542  0.00  0.00     0.096 C 
HETATM    4 Br   UNK     0      20.914  36.134   2.156  0.00  0.00    -0.096 Br
ENDBRANCH   2   3
TORSDOF 1
ENDMDL
