MODEL 1
REMARK VINA RESULT:    -3.262      0.000      0.000
REMARK INTER + INTRA:          -3.453
REMARK INTER:                  -3.453
REMARK INTRA:                   0.000
REMARK UNBOUND:                 0.000
REMARK  1 active torsions:
REMARK  status: ('A' for Active; 'I' for Inactive)
REMARK    1  A    between atoms: C_3  and  C_4 
ROOT
HETATM    1 Br   UNK     0      17.451  37.031   3.550  0.00  0.00    -0.096 Br
HETATM    2  C   UNK     0      19.152  36.162   3.924  0.00  0.00     0.096 C 
ENDROOT
BRANCH   2   3
HETATM    3  C   UNK     0      19.619  35.422   2.696  0.00  0.00     0.096 C 
HETATM    4 Br   UNK     0      21.056  36.420   1.845  0.00  0.00    -0.096 Br
ENDBRANCH   2   3
TORSDOF 1
ENDMDL
