MODEL 9
REMARK VINA RESULT:    -1.947      1.320      1.526
REMARK INTER + INTRA:          -2.061
REMARK INTER:                  -2.061
REMARK INTRA:                   0.000
REMARK UNBOUND:                 0.000
REMARK  1 active torsions:
REMARK  status: ('A' for Active; 'I' for Inactive)
REMARK    1  A    between atoms: C_3  and  C_4 
ROOT
HETATM    1 Br   UNK     0      19.646  36.622   3.686  0.00  0.00    -0.096 Br
HETATM    2  C   UNK     0      19.800  34.921   2.754  0.00  0.00     0.096 C 
ENDROOT
BRANCH   2   3
HETATM    3  C   UNK     0      20.568  35.118   1.472  0.00  0.00     0.096 C 
HETATM    4 Br   UNK     0      21.360  36.895   1.457  0.00  0.00    -0.096 Br
ENDBRANCH   2   3
TORSDOF 1
ENDMDL
