MODEL 7
REMARK VINA RESULT:    -0.367      2.137      3.644
REMARK INTER + INTRA:          -0.388
REMARK INTER:                  -0.388
REMARK INTRA:                   0.000
REMARK UNBOUND:                 0.000
REMARK  1 active torsions:
REMARK  status: ('A' for Active; 'I' for Inactive)
REMARK    1  A    between atoms: C_3  and  C_4 
ROOT
HETATM    1 Br   UNK     0      19.685  36.669   2.834  0.00  0.00    -0.096 Br
HETATM    2  C   UNK     0      21.003  35.252   2.634  0.00  0.00     0.096 C 
ENDROOT
BRANCH   2   3
HETATM    3  C   UNK     0      20.834  34.594   1.288  0.00  0.00     0.096 C 
HETATM    4 Br   UNK     0      21.761  35.640  -0.066  0.00  0.00    -0.096 Br
ENDBRANCH   2   3
TORSDOF 1
ENDMDL
