REMARK  1 active torsions:
REMARK  status: ('A' for Active; 'I' for Inactive)
REMARK    1  A    between atoms: C_3  and  C_4 
ROOT
HETATM    1 Br   UNK     0      21.298  35.657   1.934  0.00  0.00    -0.096 Br
HETATM    2  C   UNK     0      20.177  36.866   2.967  0.00  0.00     0.096 C 
ENDROOT
BRANCH   2   3
HETATM    3  C   UNK     0      19.075  36.081   3.636  0.00  0.00     0.096 C 
HETATM    4 Br   UNK     0      18.264  37.165   5.034  0.00  0.00    -0.096 Br
ENDBRANCH   2   3
TORSDOF 1
