MODEL 2
REMARK VINA RESULT:    -3.293      1.898      2.013
REMARK INTER + INTRA:          -3.486
REMARK INTER:                  -3.486
REMARK INTRA:                   0.000
REMARK UNBOUND:                 0.000
REMARK  1 active torsions:
REMARK  status: ('A' for Active; 'I' for Inactive)
REMARK    1  A    between atoms: C_3  and  C_4 
ROOT
HETATM    1 Br   UNK     0      17.447  36.962   2.269  0.00  0.00    -0.096 Br
HETATM    2  C   UNK     0      18.729  36.215   3.528  0.00  0.00     0.096 C 
ENDROOT
BRANCH   2   3
HETATM    3  C   UNK     0      19.739  35.380   2.781  0.00  0.00     0.096 C 
HETATM    4 Br   UNK     0      20.974  36.549   1.835  0.00  0.00    -0.096 Br
ENDBRANCH   2   3
TORSDOF 1
ENDMDL
