REMARK  1 active torsions:
REMARK  status: ('A' for Active; 'I' for Inactive)
REMARK    1  A    between atoms: C_3  and  C_4 
ROOT
HETATM    1 Br   UNK     0      25.005  34.574  -0.971  0.00  0.00    -0.096 Br
HETATM    2  C   UNK     0      23.188  35.270  -0.999  0.00  0.00     0.096 C 
ENDROOT
BRANCH   2   3
HETATM    3  C   UNK     0      22.210  34.122  -0.999  0.00  0.00     0.096 C 
HETATM    4 Br   UNK     0      20.393  34.818  -0.971  0.00  0.00    -0.096 Br
ENDBRANCH   2   3
TORSDOF 1
