REMARK  1 active torsions:
REMARK  status: ('A' for Active; 'I' for Inactive)
REMARK    1  A    between atoms: C_3  and  C_4 
ROOT
HETATM    1 Br   UNK     0      23.701  35.172   0.620  0.00  0.00    -0.096 Br
HETATM    2  C   UNK     0      21.884  35.868   0.592  0.00  0.00     0.096 C 
ENDROOT
BRANCH   2   3
HETATM    3  C   UNK     0      20.906  34.720   0.592  0.00  0.00     0.096 C 
HETATM    4 Br   UNK     0      19.089  35.416   0.620  0.00  0.00    -0.096 Br
ENDBRANCH   2   3
TORSDOF 1
