MODEL 1
REMARK VINA RESULT:    -2.327      0.000      0.000
REMARK INTER + INTRA:          -2.463
REMARK INTER:                  -2.463
REMARK INTRA:                   0.000
REMARK UNBOUND:                 0.000
REMARK  1 active torsions:
REMARK  status: ('A' for Active; 'I' for Inactive)
REMARK    1  A    between atoms: C_3  and  C_4 
ROOT
HETATM    1 Br   UNK     0      17.873  36.928   2.394  0.00  0.00    -0.096 Br
HETATM    2  C   UNK     0      19.300  36.021   3.357  0.00  0.00     0.096 C 
ENDROOT
BRANCH   2   3
HETATM    3  C   UNK     0      20.127  35.215   2.388  0.00  0.00     0.096 C 
HETATM    4 Br   UNK     0      21.258  36.410   1.349  0.00  0.00    -0.096 Br
ENDBRANCH   2   3
TORSDOF 1
ENDMDL
