MODEL 1
REMARK VINA RESULT:    -2.797      0.000      0.000
REMARK INTER + INTRA:          -2.961
REMARK INTER:                  -2.961
REMARK INTRA:                   0.000
REMARK UNBOUND:                 0.000
REMARK  1 active torsions:
REMARK  status: ('A' for Active; 'I' for Inactive)
REMARK    1  A    between atoms: C_3  and  C_4 
ROOT
HETATM    1 Br   UNK     0      19.736  37.152   5.165  0.00  0.00    -0.096 Br
HETATM    2  C   UNK     0      18.245  36.486   4.107  0.00  0.00     0.096 C 
ENDROOT
BRANCH   2   3
HETATM    3  C   UNK     0      18.625  36.487   2.647  0.00  0.00     0.096 C 
HETATM    4 Br   UNK     0      20.539  36.185   2.475  0.00  0.00    -0.096 Br
ENDBRANCH   2   3
TORSDOF 1
ENDMDL
