MODEL 1
REMARK VINA RESULT:    -2.816      0.000      0.000
REMARK INTER + INTRA:          -2.980
REMARK INTER:                  -2.980
REMARK INTRA:                   0.000
REMARK UNBOUND:                 0.000
REMARK  1 active torsions:
REMARK  status: ('A' for Active; 'I' for Inactive)
REMARK    1  A    between atoms: C_3  and  C_4 
ROOT
HETATM    1 Br   UNK     0      17.382  36.895   2.223  0.00  0.00    -0.096 Br
HETATM    2  C   UNK     0      17.757  36.967   4.131  0.00  0.00     0.096 C 
ENDROOT
BRANCH   2   3
HETATM    3  C   UNK     0      19.205  36.619   4.372  0.00  0.00     0.096 C 
HETATM    4 Br   UNK     0      20.036  36.100   2.691  0.00  0.00    -0.096 Br
ENDBRANCH   2   3
TORSDOF 1
ENDMDL
