MODEL 1
REMARK VINA RESULT:    -2.797      0.000      0.000
REMARK INTER + INTRA:          -2.960
REMARK INTER:                  -2.960
REMARK INTRA:                   0.000
REMARK UNBOUND:                 0.000
REMARK  1 active torsions:
REMARK  status: ('A' for Active; 'I' for Inactive)
REMARK    1  A    between atoms: C_3  and  C_4 
ROOT
HETATM    1 Br   UNK     0      19.790  37.130   5.167  0.00  0.00    -0.096 Br
HETATM    2  C   UNK     0      18.277  36.468   4.139  0.00  0.00     0.096 C 
ENDROOT
BRANCH   2   3
HETATM    3  C   UNK     0      18.624  36.474   2.671  0.00  0.00     0.096 C 
HETATM    4 Br   UNK     0      20.536  36.178   2.456  0.00  0.00    -0.096 Br
ENDBRANCH   2   3
TORSDOF 1
ENDMDL
