MODEL 1
REMARK VINA RESULT:    -2.641      0.000      0.000
REMARK INTER + INTRA:          -2.796
REMARK INTER:                  -2.796
REMARK INTRA:                   0.000
REMARK UNBOUND:                 0.000
REMARK  1 active torsions:
REMARK  status: ('A' for Active; 'I' for Inactive)
REMARK    1  A    between atoms: C_3  and  C_4 
ROOT
HETATM    1 Br   UNK     0      17.636  36.764   2.313  0.00  0.00    -0.096 Br
HETATM    2  C   UNK     0      18.396  36.458   4.078  0.00  0.00     0.096 C 
ENDROOT
BRANCH   2   3
HETATM    3  C   UNK     0      19.875  36.752   4.046  0.00  0.00     0.096 C 
HETATM    4 Br   UNK     0      20.618  36.163   2.347  0.00  0.00    -0.096 Br
ENDBRANCH   2   3
TORSDOF 1
ENDMDL
