MODEL 1
REMARK VINA RESULT:    -2.833      0.000      0.000
REMARK INTER + INTRA:          -2.999
REMARK INTER:                  -2.999
REMARK INTRA:                   0.000
REMARK UNBOUND:                 0.000
REMARK  1 active torsions:
REMARK  status: ('A' for Active; 'I' for Inactive)
REMARK    1  A    between atoms: C_3  and  C_4 
ROOT
HETATM    1 Br   UNK     0      19.256  37.020   5.210  0.00  0.00    -0.096 Br
HETATM    2  C   UNK     0      17.686  36.942   4.063  0.00  0.00     0.096 C 
ENDROOT
BRANCH   2   3
HETATM    3  C   UNK     0      18.109  36.612   2.653  0.00  0.00     0.096 C 
HETATM    4 Br   UNK     0      19.986  36.099   2.643  0.00  0.00    -0.096 Br
ENDBRANCH   2   3
TORSDOF 1
ENDMDL
