MODEL 1
REMARK VINA RESULT:    -2.828      0.000      0.000
REMARK INTER + INTRA:          -2.994
REMARK INTER:                  -2.994
REMARK INTRA:                   0.000
REMARK UNBOUND:                 0.000
REMARK  1 active torsions:
REMARK  status: ('A' for Active; 'I' for Inactive)
REMARK    1  A    between atoms: C_3  and  C_4 
ROOT
HETATM    1 Br   UNK     0      19.272  37.026   5.196  0.00  0.00    -0.096 Br
HETATM    2  C   UNK     0      17.701  36.895   4.054  0.00  0.00     0.096 C 
ENDROOT
BRANCH   2   3
HETATM    3  C   UNK     0      18.135  36.674   2.627  0.00  0.00     0.096 C 
HETATM    4 Br   UNK     0      19.884  35.821   2.605  0.00  0.00    -0.096 Br
ENDBRANCH   2   3
TORSDOF 1
ENDMDL
