MODEL 1
REMARK VINA RESULT:    -1.830      0.000      0.000
REMARK INTER + INTRA:          -1.937
REMARK INTER:                  -1.937
REMARK INTRA:                   0.000
REMARK UNBOUND:                 0.000
REMARK  1 active torsions:
REMARK  status: ('A' for Active; 'I' for Inactive)
REMARK    1  A    between atoms: C_3  and  C_4 
ROOT
HETATM    1 Br   UNK     0      28.243  34.155  -4.161  0.00  0.00    -0.096 Br
HETATM    2  C   UNK     0      26.711  33.844  -3.002  0.00  0.00     0.096 C 
ENDROOT
BRANCH   2   3
HETATM    3  C   UNK     0      25.750  32.901  -3.681  0.00  0.00     0.096 C 
HETATM    4 Br   UNK     0      24.093  32.821  -2.665  0.00  0.00    -0.096 Br
ENDBRANCH   2   3
TORSDOF 1
ENDMDL
