MODEL 1
REMARK VINA RESULT:    -2.426      0.000      0.000
REMARK INTER + INTRA:          -2.568
REMARK INTER:                  -2.568
REMARK INTRA:                   0.000
REMARK UNBOUND:                 0.000
REMARK  1 active torsions:
REMARK  status: ('A' for Active; 'I' for Inactive)
REMARK    1  A    between atoms: C_3  and  C_4 
ROOT
HETATM    1 Br   UNK     0      17.814  36.942   2.534  0.00  0.00    -0.096 Br
HETATM    2  C   UNK     0      19.262  36.062   3.490  0.00  0.00     0.096 C 
ENDROOT
BRANCH   2   3
HETATM    3  C   UNK     0      20.124  35.305   2.511  0.00  0.00     0.096 C 
HETATM    4 Br   UNK     0      21.191  36.563   1.479  0.00  0.00    -0.096 Br
ENDBRANCH   2   3
TORSDOF 1
ENDMDL
