MODEL 1
REMARK VINA RESULT:    -1.768      0.000      0.000
REMARK INTER + INTRA:          -1.872
REMARK INTER:                  -1.872
REMARK INTRA:                   0.000
REMARK UNBOUND:                 0.000
REMARK  1 active torsions:
REMARK  status: ('A' for Active; 'I' for Inactive)
REMARK    1  A    between atoms: C_3  and  C_4 
ROOT
HETATM    1 Br   UNK     0      28.182  34.206  -4.478  0.00  0.00    -0.096 Br
HETATM    2  C   UNK     0      26.784  33.873  -3.166  0.00  0.00     0.096 C 
ENDROOT
BRANCH   2   3
HETATM    3  C   UNK     0      25.848  32.812  -3.688  0.00  0.00     0.096 C 
HETATM    4 Br   UNK     0      24.182  32.865  -2.683  0.00  0.00    -0.096 Br
ENDBRANCH   2   3
TORSDOF 1
ENDMDL
