MODEL 1
REMARK VINA RESULT:    -2.823      0.000      0.000
REMARK INTER + INTRA:          -2.989
REMARK INTER:                  -2.989
REMARK INTRA:                   0.000
REMARK UNBOUND:                 0.000
REMARK  1 active torsions:
REMARK  status: ('A' for Active; 'I' for Inactive)
REMARK    1  A    between atoms: C_3  and  C_4 
ROOT
HETATM    1 Br   UNK     0      19.100  37.026   5.274  0.00  0.00    -0.096 Br
HETATM    2  C   UNK     0      17.578  37.020   4.061  0.00  0.00     0.096 C 
ENDROOT
BRANCH   2   3
HETATM    3  C   UNK     0      18.042  36.650   2.675  0.00  0.00     0.096 C 
HETATM    4 Br   UNK     0      19.906  36.096   2.740  0.00  0.00    -0.096 Br
ENDBRANCH   2   3
TORSDOF 1
ENDMDL
