MODEL 9
REMARK VINA RESULT:    -0.760      2.422      3.383
REMARK INTER + INTRA:          -0.804
REMARK INTER:                  -0.804
REMARK INTRA:                   0.000
REMARK UNBOUND:                 0.000
REMARK  1 active torsions:
REMARK  status: ('A' for Active; 'I' for Inactive)
REMARK    1  A    between atoms: C_3  and  C_4 
ROOT
HETATM    1 Br   UNK     0      20.428  34.348   2.449  0.00  0.00    -0.096 Br
HETATM    2  C   UNK     0      20.280  36.267   2.735  0.00  0.00     0.096 C 
ENDROOT
BRANCH   2   3
HETATM    3  C   UNK     0      20.968  36.998   1.609  0.00  0.00     0.096 C 
HETATM    4 Br   UNK     0      21.631  35.710   0.310  0.00  0.00    -0.096 Br
ENDBRANCH   2   3
TORSDOF 1
ENDMDL
