MODEL 8
REMARK VINA RESULT:    -2.332      1.347      1.347
REMARK INTER + INTRA:          -2.469
REMARK INTER:                  -2.469
REMARK INTRA:                   0.000
REMARK UNBOUND:                 0.000
REMARK  1 active torsions:
REMARK  status: ('A' for Active; 'I' for Inactive)
REMARK    1  A    between atoms: C_3  and  C_4 
ROOT
HETATM    1 Br   UNK     0      20.000  37.183   3.983  0.00  0.00    -0.096 Br
HETATM    2  C   UNK     0      19.485  35.493   3.168  0.00  0.00     0.096 C 
ENDROOT
BRANCH   2   3
HETATM    3  C   UNK     0      20.538  35.073   2.173  0.00  0.00     0.096 C 
HETATM    4 Br   UNK     0      21.391  36.654   1.425  0.00  0.00    -0.096 Br
ENDBRANCH   2   3
TORSDOF 1
ENDMDL
