MODEL 7
REMARK VINA RESULT:    -1.055      2.377      2.595
REMARK INTER + INTRA:          -1.117
REMARK INTER:                  -1.117
REMARK INTRA:                   0.000
REMARK UNBOUND:                 0.000
REMARK  1 active torsions:
REMARK  status: ('A' for Active; 'I' for Inactive)
REMARK    1  A    between atoms: C_3  and  C_4 
ROOT
HETATM    1 Br   UNK     0      19.592  35.915   3.511  0.00  0.00    -0.096 Br
HETATM    2  C   UNK     0      20.341  35.004   1.963  0.00  0.00     0.096 C 
ENDROOT
BRANCH   2   3
HETATM    3  C   UNK     0      21.024  36.009   1.070  0.00  0.00     0.096 C 
HETATM    4 Br   UNK     0      22.019  35.074  -0.317  0.00  0.00    -0.096 Br
ENDBRANCH   2   3
TORSDOF 1
ENDMDL
