MODEL 1
REMARK VINA RESULT:    -3.350      0.000      0.000
REMARK INTER + INTRA:          -3.545
REMARK INTER:                  -3.545
REMARK INTRA:                   0.000
REMARK UNBOUND:                 0.000
REMARK  1 active torsions:
REMARK  status: ('A' for Active; 'I' for Inactive)
REMARK    1  A    between atoms: C_3  and  C_4 
ROOT
HETATM    1 Br   UNK     0      20.964  36.380   1.895  0.00  0.00    -0.096 Br
HETATM    2  C   UNK     0      19.566  35.488   2.914  0.00  0.00     0.096 C 
ENDROOT
BRANCH   2   3
HETATM    3  C   UNK     0      18.689  36.521   3.575  0.00  0.00     0.096 C 
HETATM    4 Br   UNK     0      19.499  37.081   5.253  0.00  0.00    -0.096 Br
ENDBRANCH   2   3
TORSDOF 1
ENDMDL
