MODEL 4
REMARK VINA RESULT:    -3.278      1.334      2.885
REMARK INTER + INTRA:          -3.469
REMARK INTER:                  -3.469
REMARK INTRA:                   0.000
REMARK UNBOUND:                 0.000
REMARK  1 active torsions:
REMARK  status: ('A' for Active; 'I' for Inactive)
REMARK    1  A    between atoms: C_3  and  C_4 
ROOT
HETATM    1 Br   UNK     0      21.071  36.559   1.793  0.00  0.00    -0.096 Br
HETATM    2  C   UNK     0      19.634  35.445   2.487  0.00  0.00     0.096 C 
ENDROOT
BRANCH   2   3
HETATM    3  C   UNK     0      19.171  35.991   3.814  0.00  0.00     0.096 C 
HETATM    4 Br   UNK     0      17.537  37.015   3.560  0.00  0.00    -0.096 Br
ENDBRANCH   2   3
TORSDOF 1
ENDMDL
