REMARK  1 active torsions:
REMARK  status: ('A' for Active; 'I' for Inactive)
REMARK    1  A    between atoms: C_3  and  C_4 
ROOT
HETATM    1 Br   UNK     0      17.414  36.941   3.852  0.00  0.00    -0.096 Br
HETATM    2  C   UNK     0      18.704  36.307   2.540  0.00  0.00     0.096 C 
ENDROOT
BRANCH   2   3
HETATM    3  C   UNK     0      20.066  36.208   3.181  0.00  0.00     0.096 C 
HETATM    4 Br   UNK     0      21.438  36.271   1.803  0.00  0.00    -0.096 Br
ENDBRANCH   2   3
TORSDOF 1
