MODEL 8
REMARK VINA RESULT:    -1.483      2.247      2.400
REMARK INTER + INTRA:          -1.569
REMARK INTER:                  -1.569
REMARK INTRA:                   0.000
REMARK UNBOUND:                 0.000
REMARK  1 active torsions:
REMARK  status: ('A' for Active; 'I' for Inactive)
REMARK    1  A    between atoms: C_3  and  C_4 
ROOT
HETATM    1 Br   UNK     0      20.705  34.289   2.155  0.00  0.00    -0.096 Br
HETATM    2  C   UNK     0      19.482  35.490   3.076  0.00  0.00     0.096 C 
ENDROOT
BRANCH   2   3
HETATM    3  C   UNK     0      19.679  36.896   2.566  0.00  0.00     0.096 C 
HETATM    4 Br   UNK     0      21.222  36.945   1.382  0.00  0.00    -0.096 Br
ENDBRANCH   2   3
TORSDOF 1
ENDMDL
