MODEL 5
REMARK VINA RESULT:    -2.028      1.613      3.395
REMARK INTER + INTRA:          -2.146
REMARK INTER:                  -2.146
REMARK INTRA:                   0.000
REMARK UNBOUND:                 0.000
REMARK  1 active torsions:
REMARK  status: ('A' for Active; 'I' for Inactive)
REMARK    1  A    between atoms: C_3  and  C_4 
ROOT
HETATM    1 Br   UNK     0      21.390  35.355   0.611  0.00  0.00    -0.096 Br
HETATM    2  C   UNK     0      20.393  35.081   2.259  0.00  0.00     0.096 C 
ENDROOT
BRANCH   2   3
HETATM    3  C   UNK     0      19.880  36.407   2.763  0.00  0.00     0.096 C 
HETATM    4 Br   UNK     0      18.428  36.104   4.023  0.00  0.00    -0.096 Br
ENDBRANCH   2   3
TORSDOF 1
ENDMDL
