MODEL 7
REMARK VINA RESULT:    -1.456      2.326      2.544
REMARK INTER + INTRA:          -1.542
REMARK INTER:                  -1.542
REMARK INTRA:                   0.000
REMARK UNBOUND:                 0.000
REMARK  1 active torsions:
REMARK  status: ('A' for Active; 'I' for Inactive)
REMARK    1  A    between atoms: C_3  and  C_4 
ROOT
HETATM    1 Br   UNK     0      20.663  34.274   2.219  0.00  0.00    -0.096 Br
HETATM    2  C   UNK     0      19.439  35.507   3.096  0.00  0.00     0.096 C 
ENDROOT
BRANCH   2   3
HETATM    3  C   UNK     0      19.550  36.867   2.453  0.00  0.00     0.096 C 
HETATM    4 Br   UNK     0      21.170  36.947   1.378  0.00  0.00    -0.096 Br
ENDBRANCH   2   3
TORSDOF 1
ENDMDL
