REMARK  1 active torsions:
REMARK  status: ('A' for Active; 'I' for Inactive)
REMARK    1  A    between atoms: C_3  and  C_4 
ROOT
HETATM    1 Br   UNK     0      18.863  37.036   5.372  0.00  0.00    -0.096 Br
HETATM    2  C   UNK     0      17.570  36.813   3.936  0.00  0.00     0.096 C 
ENDROOT
BRANCH   2   3
HETATM    3  C   UNK     0      18.276  36.894   2.606  0.00  0.00     0.096 C 
HETATM    4 Br   UNK     0      19.944  35.896   2.697  0.00  0.00    -0.096 Br
ENDBRANCH   2   3
TORSDOF 1
