REMARK  1 active torsions:
REMARK  status: ('A' for Active; 'I' for Inactive)
REMARK    1  A    between atoms: C_3  and  C_4 
ROOT
HETATM    1 Br   UNK     0      26.365  32.653  -2.447  0.00  0.00    -0.096 Br
HETATM    2  C   UNK     0      24.535  32.593  -3.104  0.00  0.00     0.096 C 
ENDROOT
BRANCH   2   3
HETATM    3  C   UNK     0      24.402  31.484  -4.117  0.00  0.00     0.096 C 
HETATM    4 Br   UNK     0      22.792  31.763  -5.175  0.00  0.00    -0.096 Br
ENDBRANCH   2   3
TORSDOF 1
