REMARK  1 active torsions:
REMARK  status: ('A' for Active; 'I' for Inactive)
REMARK    1  A    between atoms: C_3  and  C_4 
ROOT
HETATM    1 Br   UNK     0      21.592  35.470   0.770  0.00  0.00    -0.096 Br
HETATM    2  C   UNK     0      20.507  36.523   1.996  0.00  0.00     0.096 C 
ENDROOT
BRANCH   2   3
HETATM    3  C   UNK     0      19.600  35.606   2.777  0.00  0.00     0.096 C 
HETATM    4 Br   UNK     0      18.804  36.588   4.257  0.00  0.00    -0.096 Br
ENDBRANCH   2   3
TORSDOF 1
