REMARK  1 active torsions:
REMARK  status: ('A' for Active; 'I' for Inactive)
REMARK    1  A    between atoms: C_3  and  C_4 
ROOT
HETATM    1 Br   UNK     0      21.472  35.753   2.315  0.00  0.00    -0.096 Br
HETATM    2  C   UNK     0      19.889  36.883   2.390  0.00  0.00     0.096 C 
ENDROOT
BRANCH   2   3
HETATM    3  C   UNK     0      18.659  36.017   2.491  0.00  0.00     0.096 C 
HETATM    4 Br   UNK     0      17.077  37.147   2.581  0.00  0.00    -0.096 Br
ENDBRANCH   2   3
TORSDOF 1
