REMARK  1 active torsions:
REMARK  status: ('A' for Active; 'I' for Inactive)
REMARK    1  A    between atoms: C_3  and  C_4 
ROOT
HETATM    1 Br   UNK     0      21.496  35.686   1.857  0.00  0.00    -0.096 Br
HETATM    2  C   UNK     0      20.245  36.796   2.852  0.00  0.00     0.096 C 
ENDROOT
BRANCH   2   3
HETATM    3  C   UNK     0      19.233  35.917   3.543  0.00  0.00     0.096 C 
HETATM    4 Br   UNK     0      18.272  36.959   4.877  0.00  0.00    -0.096 Br
ENDBRANCH   2   3
TORSDOF 1
