REMARK  1 active torsions:
REMARK  status: ('A' for Active; 'I' for Inactive)
REMARK    1  A    between atoms: C_3  and  C_4 
ROOT
HETATM    1 Br   UNK     0      25.531  33.337  -2.064  0.00  0.00    -0.096 Br
HETATM    2  C   UNK     0      23.714  34.033  -2.092  0.00  0.00     0.096 C 
ENDROOT
BRANCH   2   3
HETATM    3  C   UNK     0      22.736  32.885  -2.092  0.00  0.00     0.096 C 
HETATM    4 Br   UNK     0      20.919  33.581  -2.064  0.00  0.00    -0.096 Br
ENDBRANCH   2   3
TORSDOF 1
