MODEL 3
REMARK VINA RESULT:    -3.225      1.939      2.810
REMARK INTER + INTRA:          -3.413
REMARK INTER:                  -3.413
REMARK INTRA:                   0.000
REMARK UNBOUND:                 0.000
REMARK  1 active torsions:
REMARK  status: ('A' for Active; 'I' for Inactive)
REMARK    1  A    between atoms: C_3  and  C_4 
ROOT
HETATM    1 Br   UNK     0      20.526  35.257   2.020  0.00  0.00    -0.096 Br
HETATM    2  C   UNK     0      20.118  36.526   3.437  0.00  0.00     0.096 C 
ENDROOT
BRANCH   2   3
HETATM    3  C   UNK     0      18.719  36.282   3.944  0.00  0.00     0.096 C 
HETATM    4 Br   UNK     0      17.433  36.892   2.617  0.00  0.00    -0.096 Br
ENDBRANCH   2   3
TORSDOF 1
ENDMDL
