MODEL 8
REMARK VINA RESULT:    -0.622      2.340      2.593
REMARK INTER + INTRA:          -0.659
REMARK INTER:                  -0.659
REMARK INTRA:                   0.000
REMARK UNBOUND:                 0.000
REMARK  1 active torsions:
REMARK  status: ('A' for Active; 'I' for Inactive)
REMARK    1  A    between atoms: C_3  and  C_4 
ROOT
HETATM    1 Br   UNK     0      20.206  34.649   2.662  0.00  0.00    -0.096 Br
HETATM    2  C   UNK     0      19.901  36.520   2.220  0.00  0.00     0.096 C 
ENDROOT
BRANCH   2   3
HETATM    3  C   UNK     0      21.041  37.028   1.374  0.00  0.00     0.096 C 
HETATM    4 Br   UNK     0      21.660  35.607   0.198  0.00  0.00    -0.096 Br
ENDBRANCH   2   3
TORSDOF 1
ENDMDL
