MODEL 7
REMARK VINA RESULT:    -1.490      2.272      2.414
REMARK INTER + INTRA:          -1.577
REMARK INTER:                  -1.577
REMARK INTRA:                   0.000
REMARK UNBOUND:                 0.000
REMARK  1 active torsions:
REMARK  status: ('A' for Active; 'I' for Inactive)
REMARK    1  A    between atoms: C_3  and  C_4 
ROOT
HETATM    1 Br   UNK     0      20.708  34.307   2.102  0.00  0.00    -0.096 Br
HETATM    2  C   UNK     0      19.515  35.473   3.103  0.00  0.00     0.096 C 
ENDROOT
BRANCH   2   3
HETATM    3  C   UNK     0      19.730  36.902   2.672  0.00  0.00     0.096 C 
HETATM    4 Br   UNK     0      21.217  36.984   1.419  0.00  0.00    -0.096 Br
ENDBRANCH   2   3
TORSDOF 1
ENDMDL
