MODEL 6
REMARK VINA RESULT:    -1.541      2.189      2.463
REMARK INTER + INTRA:          -1.631
REMARK INTER:                  -1.631
REMARK INTRA:                   0.000
REMARK UNBOUND:                 0.000
REMARK  1 active torsions:
REMARK  status: ('A' for Active; 'I' for Inactive)
REMARK    1  A    between atoms: C_3  and  C_4 
ROOT
HETATM    1 Br   UNK     0      20.667  34.273   2.092  0.00  0.00    -0.096 Br
HETATM    2  C   UNK     0      19.526  35.466   3.121  0.00  0.00     0.096 C 
ENDROOT
BRANCH   2   3
HETATM    3  C   UNK     0      19.929  36.896   2.861  0.00  0.00     0.096 C 
HETATM    4 Br   UNK     0      21.293  36.942   1.473  0.00  0.00    -0.096 Br
ENDBRANCH   2   3
TORSDOF 1
ENDMDL
