MODEL 3
REMARK VINA RESULT:    -3.276      1.729      1.729
REMARK INTER + INTRA:          -3.468
REMARK INTER:                  -3.468
REMARK INTRA:                   0.000
REMARK UNBOUND:                 0.000
REMARK  1 active torsions:
REMARK  status: ('A' for Active; 'I' for Inactive)
REMARK    1  A    between atoms: C_3  and  C_4 
ROOT
HETATM    1 Br   UNK     0      21.003  36.576   1.672  0.00  0.00    -0.096 Br
HETATM    2  C   UNK     0      19.895  35.295   2.629  0.00  0.00     0.096 C 
ENDROOT
BRANCH   2   3
HETATM    3  C   UNK     0      18.954  36.032   3.548  0.00  0.00     0.096 C 
HETATM    4 Br   UNK     0      17.563  36.895   2.496  0.00  0.00    -0.096 Br
ENDBRANCH   2   3
TORSDOF 1
ENDMDL
