REMARK  1 active torsions:
REMARK  status: ('A' for Active; 'I' for Inactive)
REMARK    1  A    between atoms: C_3  and  C_4 
ROOT
HETATM    1 Br   UNK     0      20.926  35.303   1.887  0.00  0.00    -0.096 Br
HETATM    2  C   UNK     0      19.525  36.538   2.433  0.00  0.00     0.096 C 
ENDROOT
BRANCH   2   3
HETATM    3  C   UNK     0      19.000  36.135   3.788  0.00  0.00     0.096 C 
HETATM    4 Br   UNK     0      17.317  37.050   4.131  0.00  0.00    -0.096 Br
ENDBRANCH   2   3
TORSDOF 1
