REMARK  1 active torsions:
REMARK  status: ('A' for Active; 'I' for Inactive)
REMARK    1  A    between atoms: C_3  and  C_4 
ROOT
HETATM    1 Br   UNK     0      27.934  32.451  -3.873  0.00  0.00    -0.096 Br
HETATM    2  C   UNK     0      27.116  32.374  -2.109  0.00  0.00     0.096 C 
ENDROOT
BRANCH   2   3
HETATM    3  C   UNK     0      25.917  31.461  -2.151  0.00  0.00     0.096 C 
HETATM    4 Br   UNK     0      24.476  32.326  -3.133  0.00  0.00    -0.096 Br
ENDBRANCH   2   3
TORSDOF 1
