REMARK  1 active torsions:
REMARK  status: ('A' for Active; 'I' for Inactive)
REMARK    1  A    between atoms: C_3  and  C_4 
ROOT
HETATM    1 Br   UNK     0      22.569  35.628   2.303  0.00  0.00    -0.096 Br
HETATM    2  C   UNK     0      20.752  36.324   2.275  0.00  0.00     0.096 C 
ENDROOT
BRANCH   2   3
HETATM    3  C   UNK     0      19.774  35.176   2.275  0.00  0.00     0.096 C 
HETATM    4 Br   UNK     0      17.957  35.872   2.303  0.00  0.00    -0.096 Br
ENDBRANCH   2   3
TORSDOF 1
