MODEL 3
REMARK VINA RESULT:    -3.235      2.034      2.766
REMARK INTER + INTRA:          -3.424
REMARK INTER:                  -3.424
REMARK INTRA:                   0.000
REMARK UNBOUND:                 0.000
REMARK  1 active torsions:
REMARK  status: ('A' for Active; 'I' for Inactive)
REMARK    1  A    between atoms: C_3  and  C_4 
ROOT
HETATM    1 Br   UNK     0      20.495  35.205   2.072  0.00  0.00    -0.096 Br
HETATM    2  C   UNK     0      20.037  36.525   3.426  0.00  0.00     0.096 C 
ENDROOT
BRANCH   2   3
HETATM    3  C   UNK     0      18.592  36.357   3.824  0.00  0.00     0.096 C 
HETATM    4 Br   UNK     0      17.445  36.928   2.359  0.00  0.00    -0.096 Br
ENDBRANCH   2   3
TORSDOF 1
ENDMDL
