MODEL 7
REMARK VINA RESULT:    -1.537      2.171      2.428
REMARK INTER + INTRA:          -1.627
REMARK INTER:                  -1.627
REMARK INTRA:                   0.000
REMARK UNBOUND:                 0.000
REMARK  1 active torsions:
REMARK  status: ('A' for Active; 'I' for Inactive)
REMARK    1  A    between atoms: C_3  and  C_4 
ROOT
HETATM    1 Br   UNK     0      20.606  34.302   2.081  0.00  0.00    -0.096 Br
HETATM    2  C   UNK     0      19.525  35.494   3.175  0.00  0.00     0.096 C 
ENDROOT
BRANCH   2   3
HETATM    3  C   UNK     0      20.003  36.913   2.994  0.00  0.00     0.096 C 
HETATM    4 Br   UNK     0      21.326  36.976   1.569  0.00  0.00    -0.096 Br
ENDBRANCH   2   3
TORSDOF 1
ENDMDL
