MODEL 4
REMARK VINA RESULT:    -3.244      1.425      1.425
REMARK INTER + INTRA:          -3.433
REMARK INTER:                  -3.433
REMARK INTRA:                   0.000
REMARK UNBOUND:                 0.000
REMARK  1 active torsions:
REMARK  status: ('A' for Active; 'I' for Inactive)
REMARK    1  A    between atoms: C_3  and  C_4 
ROOT
HETATM    1 Br   UNK     0      21.127  36.324   1.874  0.00  0.00    -0.096 Br
HETATM    2  C   UNK     0      19.628  35.410   2.712  0.00  0.00     0.096 C 
ENDROOT
BRANCH   2   3
HETATM    3  C   UNK     0      19.155  36.207   3.902  0.00  0.00     0.096 C 
HETATM    4 Br   UNK     0      17.433  37.017   3.498  0.00  0.00    -0.096 Br
ENDBRANCH   2   3
TORSDOF 1
ENDMDL
