MODEL 9
REMARK VINA RESULT:    -1.540      2.187      2.494
REMARK INTER + INTRA:          -1.630
REMARK INTER:                  -1.630
REMARK INTRA:                   0.000
REMARK UNBOUND:                 0.000
REMARK  1 active torsions:
REMARK  status: ('A' for Active; 'I' for Inactive)
REMARK    1  A    between atoms: C_3  and  C_4 
ROOT
HETATM    1 Br   UNK     0      21.287  36.915   1.451  0.00  0.00    -0.096 Br
HETATM    2  C   UNK     0      20.020  36.888   2.928  0.00  0.00     0.096 C 
ENDROOT
BRANCH   2   3
HETATM    3  C   UNK     0      19.536  35.477   3.149  0.00  0.00     0.096 C 
HETATM    4 Br   UNK     0      20.632  34.246   2.115  0.00  0.00    -0.096 Br
ENDBRANCH   2   3
TORSDOF 1
ENDMDL
