REMARK  1 active torsions:
REMARK  status: ('A' for Active; 'I' for Inactive)
REMARK    1  A    between atoms: C_3  and  C_4 
ROOT
HETATM    1 Br   UNK     0      25.552  32.370  -2.727  0.00  0.00    -0.096 Br
HETATM    2  C   UNK     0      26.934  33.680  -3.132  0.00  0.00     0.096 C 
ENDROOT
BRANCH   2   3
HETATM    3  C   UNK     0      27.192  33.695  -4.619  0.00  0.00     0.096 C 
HETATM    4 Br   UNK     0      27.281  31.867  -5.279  0.00  0.00    -0.096 Br
ENDBRANCH   2   3
TORSDOF 1
