REMARK  1 active torsions:
REMARK  status: ('A' for Active; 'I' for Inactive)
REMARK    1  A    between atoms: C_3  and  C_4 
ROOT
HETATM    1 Br   UNK     0      23.821  33.181  -2.235  0.00  0.00    -0.096 Br
HETATM    2  C   UNK     0      25.413  32.553  -3.161  0.00  0.00     0.096 C 
ENDROOT
BRANCH   2   3
HETATM    3  C   UNK     0      25.105  31.256  -3.867  0.00  0.00     0.096 C 
HETATM    4 Br   UNK     0      24.166  31.631  -5.530  0.00  0.00    -0.096 Br
ENDBRANCH   2   3
TORSDOF 1
