REMARK  1 active torsions:
REMARK  status: ('A' for Active; 'I' for Inactive)
REMARK    1  A    between atoms: C_3  and  C_4 
ROOT
HETATM    1 Br   UNK     0      26.576  32.868  -2.495  0.00  0.00    -0.096 Br
HETATM    2  C   UNK     0      24.664  32.747  -2.838  0.00  0.00     0.096 C 
ENDROOT
BRANCH   2   3
HETATM    3  C   UNK     0      24.416  31.768  -3.957  0.00  0.00     0.096 C 
HETATM    4 Br   UNK     0      22.640  32.062  -4.696  0.00  0.00    -0.096 Br
ENDBRANCH   2   3
TORSDOF 1
