REMARK  1 active torsions:
REMARK  status: ('A' for Active; 'I' for Inactive)
REMARK    1  A    between atoms: C_3  and  C_4 
ROOT
HETATM    1 Br   UNK     0      17.035  37.017   3.109  0.00  0.00    -0.096 Br
HETATM    2  C   UNK     0      18.755  36.320   2.525  0.00  0.00     0.096 C 
ENDROOT
BRANCH   2   3
HETATM    3  C   UNK     0      19.757  36.450   3.646  0.00  0.00     0.096 C 
HETATM    4 Br   UNK     0      18.843  37.014   5.269  0.00  0.00    -0.096 Br
ENDBRANCH   2   3
TORSDOF 1
