REMARK  1 active torsions:
REMARK  status: ('A' for Active; 'I' for Inactive)
REMARK    1  A    between atoms: C_3  and  C_4 
ROOT
HETATM    1 Br   UNK     0      21.051  36.386   2.478  0.00  0.00    -0.096 Br
HETATM    2  C   UNK     0      21.029  35.219   0.921  0.00  0.00     0.096 C 
ENDROOT
BRANCH   2   3
HETATM    3  C   UNK     0      21.713  35.908  -0.233  0.00  0.00     0.096 C 
HETATM    4 Br   UNK     0      22.619  34.583  -1.334  0.00  0.00    -0.096 Br
ENDBRANCH   2   3
TORSDOF 1
