MODEL 8
REMARK VINA RESULT:    -1.607      1.895      3.456
REMARK INTER + INTRA:          -1.701
REMARK INTER:                  -1.701
REMARK INTRA:                   0.000
REMARK UNBOUND:                 0.000
REMARK  1 active torsions:
REMARK  status: ('A' for Active; 'I' for Inactive)
REMARK    1  A    between atoms: C_3  and  C_4 
ROOT
HETATM    1 Br   UNK     0      18.927  35.881   3.573  0.00  0.00    -0.096 Br
HETATM    2  C   UNK     0      20.396  35.146   2.531  0.00  0.00     0.096 C 
ENDROOT
BRANCH   2   3
HETATM    3  C   UNK     0      21.155  36.270   1.870  0.00  0.00     0.096 C 
HETATM    4 Br   UNK     0      21.670  35.735   0.071  0.00  0.00    -0.096 Br
ENDBRANCH   2   3
TORSDOF 1
ENDMDL
