REMARK  1 active torsions:
REMARK  status: ('A' for Active; 'I' for Inactive)
REMARK    1  A    between atoms: C_3  and  C_4 
ROOT
HETATM    1 Br   UNK     0      21.460  35.587   0.656  0.00  0.00    -0.096 Br
HETATM    2  C   UNK     0      20.425  36.650   1.916  0.00  0.00     0.096 C 
ENDROOT
BRANCH   2   3
HETATM    3  C   UNK     0      19.489  35.750   2.682  0.00  0.00     0.096 C 
HETATM    4 Br   UNK     0      19.031  36.585   4.379  0.00  0.00    -0.096 Br
ENDBRANCH   2   3
TORSDOF 1
