REMARK  1 active torsions:
REMARK  status: ('A' for Active; 'I' for Inactive)
REMARK    1  A    between atoms: C_3  and  C_4 
ROOT
HETATM    1 Br   UNK     0      27.300  33.507  -2.701  0.00  0.00    -0.096 Br
HETATM    2  C   UNK     0      25.384  33.535  -3.043  0.00  0.00     0.096 C 
ENDROOT
BRANCH   2   3
HETATM    3  C   UNK     0      24.850  32.124  -3.028  0.00  0.00     0.096 C 
HETATM    4 Br   UNK     0      23.955  31.751  -4.714  0.00  0.00    -0.096 Br
ENDBRANCH   2   3
TORSDOF 1
