REMARK  1 active torsions:
REMARK  status: ('A' for Active; 'I' for Inactive)
REMARK    1  A    between atoms: C_3  and  C_4 
ROOT
HETATM    1 Br   UNK     0      27.498  32.778  -4.300  0.00  0.00    -0.096 Br
HETATM    2  C   UNK     0      26.798  33.216  -2.538  0.00  0.00     0.096 C 
ENDROOT
BRANCH   2   3
HETATM    3  C   UNK     0      27.031  32.056  -1.602  0.00  0.00     0.096 C 
HETATM    4 Br   UNK     0      26.375  30.419  -2.423  0.00  0.00    -0.096 Br
ENDBRANCH   2   3
TORSDOF 1
