REMARK  1 active torsions:
REMARK  status: ('A' for Active; 'I' for Inactive)
REMARK    1  A    between atoms: C_3  and  C_4 
ROOT
HETATM    1 Br   UNK     0      26.415  33.119  -2.758  0.00  0.00    -0.096 Br
HETATM    2  C   UNK     0      25.516  32.501  -4.372  0.00  0.00     0.096 C 
ENDROOT
BRANCH   2   3
HETATM    3  C   UNK     0      26.014  31.122  -4.728  0.00  0.00     0.096 C 
HETATM    4 Br   UNK     0      25.312  30.609  -6.468  0.00  0.00    -0.096 Br
ENDBRANCH   2   3
TORSDOF 1
