REMARK  1 active torsions:
REMARK  status: ('A' for Active; 'I' for Inactive)
REMARK    1  A    between atoms: C_3  and  C_4 
ROOT
HETATM    1 Br   UNK     0      21.408  35.802   2.465  0.00  0.00    -0.096 Br
HETATM    2  C   UNK     0      19.834  36.865   2.893  0.00  0.00     0.096 C 
ENDROOT
BRANCH   2   3
HETATM    3  C   UNK     0      18.660  35.951   3.137  0.00  0.00     0.096 C 
HETATM    4 Br   UNK     0      17.097  37.012   3.600  0.00  0.00    -0.096 Br
ENDBRANCH   2   3
TORSDOF 1
