REMARK  1 active torsions:
REMARK  status: ('A' for Active; 'I' for Inactive)
REMARK    1  A    between atoms: C_3  and  C_4 
ROOT
HETATM    1 Br   UNK     0      26.072  33.218  -2.707  0.00  0.00    -0.096 Br
HETATM    2  C   UNK     0      27.581  32.081  -3.176  0.00  0.00     0.096 C 
ENDROOT
BRANCH   2   3
HETATM    3  C   UNK     0      27.758  31.020  -2.119  0.00  0.00     0.096 C 
HETATM    4 Br   UNK     0      26.159  30.937  -1.010  0.00  0.00    -0.096 Br
ENDBRANCH   2   3
TORSDOF 1
