REMARK  1 active torsions:
REMARK  status: ('A' for Active; 'I' for Inactive)
REMARK    1  A    between atoms: C_3  and  C_4 
ROOT
HETATM    1 Br   UNK     0      20.851  35.724   2.032  0.00  0.00    -0.096 Br
HETATM    2  C   UNK     0      20.187  36.735   3.557  0.00  0.00     0.096 C 
ENDROOT
BRANCH   2   3
HETATM    3  C   UNK     0      18.895  36.125   4.039  0.00  0.00     0.096 C 
HETATM    4 Br   UNK     0      17.397  36.983   3.139  0.00  0.00    -0.096 Br
ENDBRANCH   2   3
TORSDOF 1
