REMARK  1 active torsions:
REMARK  status: ('A' for Active; 'I' for Inactive)
REMARK    1  A    between atoms: C_3  and  C_4 
ROOT
HETATM    1 Br   UNK     0      21.269  36.158   1.731  0.00  0.00    -0.096 Br
HETATM    2  C   UNK     0      20.225  36.754   3.260  0.00  0.00     0.096 C 
ENDROOT
BRANCH   2   3
HETATM    3  C   UNK     0      18.952  35.953   3.343  0.00  0.00     0.096 C 
HETATM    4 Br   UNK     0      17.463  37.137   3.753  0.00  0.00    -0.096 Br
ENDBRANCH   2   3
TORSDOF 1
