REMARK  1 active torsions:
REMARK  status: ('A' for Active; 'I' for Inactive)
REMARK    1  A    between atoms: C_3  and  C_4 
ROOT
HETATM    1 Br   UNK     0      23.413  34.134  -1.814  0.00  0.00    -0.096 Br
HETATM    2  C   UNK     0      22.267  35.524  -1.076  0.00  0.00     0.096 C 
ENDROOT
BRANCH   2   3
HETATM    3  C   UNK     0      21.731  35.075   0.260  0.00  0.00     0.096 C 
HETATM    4 Br   UNK     0      21.389  36.631   1.378  0.00  0.00    -0.096 Br
ENDBRANCH   2   3
TORSDOF 1
