REMARK  1 active torsions:
REMARK  status: ('A' for Active; 'I' for Inactive)
REMARK    1  A    between atoms: C_3  and  C_4 
ROOT
HETATM    1 Br   UNK     0      21.894  34.778  -0.652  0.00  0.00    -0.096 Br
HETATM    2  C   UNK     0      21.239  35.959   0.749  0.00  0.00     0.096 C 
ENDROOT
BRANCH   2   3
HETATM    3  C   UNK     0      21.024  35.167   2.014  0.00  0.00     0.096 C 
HETATM    4 Br   UNK     0      19.916  36.194   3.241  0.00  0.00    -0.096 Br
ENDBRANCH   2   3
TORSDOF 1
