REMARK  1 active torsions:
REMARK  status: ('A' for Active; 'I' for Inactive)
REMARK    1  A    between atoms: C_3  and  C_4 
ROOT
HETATM    1 Br   UNK     0      25.988  33.184  -3.018  0.00  0.00    -0.096 Br
HETATM    2  C   UNK     0      26.019  32.342  -4.773  0.00  0.00     0.096 C 
ENDROOT
BRANCH   2   3
HETATM    3  C   UNK     0      25.008  31.224  -4.813  0.00  0.00     0.096 C 
HETATM    4 Br   UNK     0      23.304  31.865  -4.126  0.00  0.00    -0.096 Br
ENDBRANCH   2   3
TORSDOF 1
