REMARK  1 active torsions:
REMARK  status: ('A' for Active; 'I' for Inactive)
REMARK    1  A    between atoms: C_3  and  C_4 
ROOT
HETATM    1 Br   UNK     0      26.452  32.807  -2.493  0.00  0.00    -0.096 Br
HETATM    2  C   UNK     0      24.680  32.904  -3.291  0.00  0.00     0.096 C 
ENDROOT
BRANCH   2   3
HETATM    3  C   UNK     0      24.422  31.654  -4.095  0.00  0.00     0.096 C 
HETATM    4 Br   UNK     0      22.835  31.905  -5.192  0.00  0.00    -0.096 Br
ENDBRANCH   2   3
TORSDOF 1
