REMARK  1 active torsions:
REMARK  status: ('A' for Active; 'I' for Inactive)
REMARK    1  A    between atoms: C_3  and  C_4 
ROOT
HETATM    1 Br   UNK     0      23.556  33.577  -2.102  0.00  0.00    -0.096 Br
HETATM    2  C   UNK     0      22.519  35.039  -1.345  0.00  0.00     0.096 C 
ENDROOT
BRANCH   2   3
HETATM    3  C   UNK     0      21.760  34.546  -0.140  0.00  0.00     0.096 C 
HETATM    4 Br   UNK     0      21.301  36.054   1.000  0.00  0.00    -0.096 Br
ENDBRANCH   2   3
TORSDOF 1
