REMARK  1 active torsions:
REMARK  status: ('A' for Active; 'I' for Inactive)
REMARK    1  A    between atoms: C_3  and  C_4 
ROOT
HETATM    1 Br   UNK     0      21.969  34.817  -0.070  0.00  0.00    -0.096 Br
HETATM    2  C   UNK     0      22.690  34.617  -1.867  0.00  0.00     0.096 C 
ENDROOT
BRANCH   2   3
HETATM    3  C   UNK     0      23.656  33.460  -1.895  0.00  0.00     0.096 C 
HETATM    4 Br   UNK     0      23.213  32.280  -3.377  0.00  0.00    -0.096 Br
ENDBRANCH   2   3
TORSDOF 1
