REMARK  1 active torsions:
REMARK  status: ('A' for Active; 'I' for Inactive)
REMARK    1  A    between atoms: C_3  and  C_4 
ROOT
HETATM    1 Br   UNK     0      21.046  35.543   2.232  0.00  0.00    -0.096 Br
HETATM    2  C   UNK     0      19.786  36.683   3.180  0.00  0.00     0.096 C 
ENDROOT
BRANCH   2   3
HETATM    3  C   UNK     0      18.758  35.825   3.875  0.00  0.00     0.096 C 
HETATM    4 Br   UNK     0      17.625  36.947   4.991  0.00  0.00    -0.096 Br
ENDBRANCH   2   3
TORSDOF 1
