REMARK  1 active torsions:
REMARK  status: ('A' for Active; 'I' for Inactive)
REMARK    1  A    between atoms: C_3  and  C_4 
ROOT
HETATM    1 Br   UNK     0      21.181  35.675   2.131  0.00  0.00    -0.096 Br
HETATM    2  C   UNK     0      19.972  36.922   3.007  0.00  0.00     0.096 C 
ENDROOT
BRANCH   2   3
HETATM    3  C   UNK     0      18.864  36.155   3.684  0.00  0.00     0.096 C 
HETATM    4 Br   UNK     0      17.892  37.342   4.882  0.00  0.00    -0.096 Br
ENDBRANCH   2   3
TORSDOF 1
